*SPEF "ieee 1481-1999"
*DESIGN "alu"
*DATE "11:11:11 Fri 11 11, 1111"
*VENDOR "OpenRCX"
*PROGRAM "Parallel Extraction"
*VERSION "1.0"
*DESIGN_FLOW "NAME_SCOPE LOCAL" "PIN_CAP NONE"
*DIVIDER /
*DELIMITER :
*BUS_DELIMITER []
*T_UNIT 1 NS
*C_UNIT 1 PF
*R_UNIT 1 OHM
*L_UNIT 1 HENRY

*NAME_MAP
*3 a[0]
*4 a[1]
*5 a[2]
*6 a[3]
*7 a[4]
*8 a[5]
*9 a[6]
*10 a[7]
*11 b[0]
*12 b[1]
*13 b[2]
*14 b[3]
*15 b[4]
*16 b[5]
*17 b[6]
*18 b[7]
*19 sel[0]
*20 sel[1]
*21 sel[2]
*22 y[0]
*23 y[1]
*24 y[2]
*25 y[3]
*26 y[4]
*27 y[5]
*28 y[6]
*29 y[7]
*30 _000_
*31 _001_
*32 _002_
*33 _003_
*34 _004_
*35 _005_
*36 _006_
*37 _007_
*38 _008_
*39 _009_
*40 _010_
*41 _011_
*42 _012_
*43 _013_
*44 _014_
*45 _015_
*46 _016_
*47 _017_
*48 _018_
*49 _019_
*50 _020_
*51 _021_
*52 _022_
*53 _023_
*54 _024_
*55 _025_
*56 _026_
*57 _027_
*58 _028_
*59 _029_
*60 _030_
*61 _031_
*62 _032_
*63 _033_
*64 _034_
*65 _035_
*66 _036_
*67 _037_
*68 _038_
*69 _039_
*70 _040_
*71 _041_
*72 _042_
*73 _043_
*74 _044_
*75 _045_
*76 _046_
*77 _047_
*78 _048_
*79 _049_
*80 _050_
*81 _051_
*82 _052_
*83 _053_
*84 _054_
*85 _055_
*86 _056_
*87 _057_
*88 _058_
*89 _059_
*90 _060_
*91 _061_
*92 _062_
*93 _063_
*94 _064_
*95 _065_
*96 _066_
*97 _067_
*98 _068_
*99 _069_
*100 _070_
*101 _071_
*102 _072_
*103 _073_
*104 _074_
*105 _075_
*106 _076_
*107 _077_
*108 _078_
*109 _079_
*110 _080_
*111 _081_
*112 _082_
*113 _083_
*114 _084_
*115 _085_
*116 _086_
*117 _087_
*118 _088_
*119 _089_
*120 _090_
*121 _091_
*122 _092_
*123 net1
*124 net10
*125 net11
*126 net12
*127 net13
*128 net14
*129 net15
*130 net16
*131 net17
*132 net18
*133 net19
*134 net2
*135 net20
*136 net21
*137 net22
*138 net23
*139 net24
*140 net25
*141 net26
*142 net27
*143 net3
*144 net4
*145 net5
*146 net6
*147 net7
*148 net8
*149 net9
*150 FILLER_0_0_14
*151 FILLER_0_0_26
*152 FILLER_0_0_35
*153 FILLER_0_0_43
*154 FILLER_0_0_53
*155 FILLER_0_0_57
*156 FILLER_0_0_65
*157 FILLER_0_0_69
*158 FILLER_0_0_78
*159 FILLER_0_0_85
*160 FILLER_0_10_15
*161 FILLER_0_10_23
*162 FILLER_0_10_27
*163 FILLER_0_10_29
*164 FILLER_0_10_3
*165 FILLER_0_10_41
*166 FILLER_0_10_53
*167 FILLER_0_10_61
*168 FILLER_0_10_72
*169 FILLER_0_10_85
*170 FILLER_0_10_89
*171 FILLER_0_11_18
*172 FILLER_0_11_26
*173 FILLER_0_11_3
*174 FILLER_0_11_32
*175 FILLER_0_11_44
*176 FILLER_0_11_57
*177 FILLER_0_11_65
*178 FILLER_0_11_75
*179 FILLER_0_11_83
*180 FILLER_0_11_9
*181 FILLER_0_12_12
*182 FILLER_0_12_54
*183 FILLER_0_12_66
*184 FILLER_0_12_7
*185 FILLER_0_12_76
*186 FILLER_0_12_88
*187 FILLER_0_13_14
*188 FILLER_0_13_25
*189 FILLER_0_13_45
*190 FILLER_0_13_70
*191 FILLER_0_13_85
*192 FILLER_0_14_13
*193 FILLER_0_14_21
*194 FILLER_0_14_27
*195 FILLER_0_14_29
*196 FILLER_0_14_37
*197 FILLER_0_14_50
*198 FILLER_0_14_57
*199 FILLER_0_14_74
*200 FILLER_0_14_89
*201 FILLER_0_1_21
*202 FILLER_0_1_3
*203 FILLER_0_1_55
*204 FILLER_0_1_57
*205 FILLER_0_1_65
*206 FILLER_0_1_7
*207 FILLER_0_1_77
*208 FILLER_0_2_17
*209 FILLER_0_2_25
*210 FILLER_0_2_40
*211 FILLER_0_2_52
*212 FILLER_0_2_64
*213 FILLER_0_2_7
*214 FILLER_0_2_72
*215 FILLER_0_2_82
*216 FILLER_0_2_85
*217 FILLER_0_2_89
*218 FILLER_0_3_11
*219 FILLER_0_3_25
*220 FILLER_0_3_3
*221 FILLER_0_3_37
*222 FILLER_0_3_49
*223 FILLER_0_3_66
*224 FILLER_0_4_16
*225 FILLER_0_4_29
*226 FILLER_0_4_3
*227 FILLER_0_4_41
*228 FILLER_0_4_51
*229 FILLER_0_4_59
*230 FILLER_0_4_74
*231 FILLER_0_4_89
*232 FILLER_0_5_20
*233 FILLER_0_5_31
*234 FILLER_0_5_37
*235 FILLER_0_5_55
*236 FILLER_0_5_60
*237 FILLER_0_5_66
*238 FILLER_0_5_7
*239 FILLER_0_6_26
*240 FILLER_0_6_44
*241 FILLER_0_6_52
*242 FILLER_0_6_68
*243 FILLER_0_6_81
*244 FILLER_0_6_89
*245 FILLER_0_7_16
*246 FILLER_0_7_24
*247 FILLER_0_7_32
*248 FILLER_0_7_36
*249 FILLER_0_7_48
*250 FILLER_0_7_57
*251 FILLER_0_7_63
*252 FILLER_0_7_68
*253 FILLER_0_7_80
*254 FILLER_0_8_3
*255 FILLER_0_8_44
*256 FILLER_0_8_49
*257 FILLER_0_8_57
*258 FILLER_0_8_72
*259 FILLER_0_8_83
*260 FILLER_0_8_85
*261 FILLER_0_8_89
*262 FILLER_0_9_13
*263 FILLER_0_9_20
*264 FILLER_0_9_28
*265 FILLER_0_9_57
*266 FILLER_0_9_89
*267 FILLER_0_9_9
*268 PHY_0
*269 PHY_1
*270 PHY_10
*271 PHY_11
*272 PHY_12
*273 PHY_13
*274 PHY_14
*275 PHY_15
*276 PHY_16
*277 PHY_17
*278 PHY_18
*279 PHY_19
*280 PHY_2
*281 PHY_20
*282 PHY_21
*283 PHY_22
*284 PHY_23
*285 PHY_24
*286 PHY_25
*287 PHY_26
*288 PHY_27
*289 PHY_28
*290 PHY_29
*291 PHY_3
*292 PHY_4
*293 PHY_5
*294 PHY_6
*295 PHY_7
*296 PHY_8
*297 PHY_9
*298 TAP_30
*299 TAP_31
*300 TAP_32
*301 TAP_33
*302 TAP_34
*303 TAP_35
*304 TAP_36
*305 TAP_37
*306 TAP_38
*307 TAP_39
*308 TAP_40
*309 TAP_41
*310 TAP_42
*311 TAP_43
*312 TAP_44
*313 TAP_45
*314 TAP_46
*315 TAP_47
*316 TAP_48
*317 TAP_49
*318 TAP_50
*319 TAP_51
*320 TAP_52
*321 TAP_53
*322 TAP_54
*323 _093_
*324 _094_
*325 _095_
*326 _096_
*327 _097_
*328 _098_
*329 _099_
*330 _100_
*331 _101_
*332 _102_
*333 _103_
*334 _104_
*335 _105_
*336 _106_
*337 _107_
*338 _108_
*339 _109_
*340 _110_
*341 _111_
*342 _112_
*343 _113_
*344 _114_
*345 _115_
*346 _116_
*347 _117_
*348 _118_
*349 _119_
*350 _120_
*351 _121_
*352 _122_
*353 _123_
*354 _124_
*355 _125_
*356 _126_
*357 _127_
*358 _128_
*359 _129_
*360 _130_
*361 _131_
*362 _132_
*363 _133_
*364 _134_
*365 _135_
*366 _136_
*367 _137_
*368 _138_
*369 _139_
*370 _140_
*371 _141_
*372 _142_
*373 _143_
*374 _144_
*375 _145_
*376 _146_
*377 _147_
*378 _148_
*379 _149_
*380 _150_
*381 _151_
*382 _152_
*383 _153_
*384 _154_
*385 _155_
*386 _156_
*387 _157_
*388 _158_
*389 _159_
*390 _160_
*391 _161_
*392 _162_
*393 _163_
*394 _164_
*395 _165_
*396 _166_
*397 _167_
*398 _168_
*399 _169_
*400 _170_
*401 _171_
*402 _172_
*403 _173_
*404 _174_
*405 _175_
*406 _176_
*407 _177_
*408 _178_
*409 _179_
*410 _180_
*411 _181_
*412 _182_
*413 _183_
*414 _184_
*415 _185_
*416 _186_
*417 _187_
*418 _188_
*419 _189_
*420 _190_
*421 _191_
*422 _192_
*423 _193_
*424 input1
*425 input10
*426 input11
*427 input12
*428 input13
*429 input14
*430 input15
*431 input16
*432 input17
*433 input18
*434 input19
*435 input2
*436 input3
*437 input4
*438 input5
*439 input6
*440 input7
*441 input8
*442 input9
*443 output20
*444 output21
*445 output22
*446 output23
*447 output24
*448 output25
*449 output26
*450 output27

*PORTS
a[0] I
a[1] I
a[2] I
a[3] I
a[4] I
a[5] I
a[6] I
a[7] I
b[0] I
b[1] I
b[2] I
b[3] I
b[4] I
b[5] I
b[6] I
b[7] I
sel[0] I
sel[1] I
sel[2] I
y[0] O
y[1] O
y[2] O
y[3] O
y[4] O
y[5] O
y[6] O
y[7] O

*D_NET *3 0.00210881
*CONN
*P a[0] I
*I *424:A I *D sky130_fd_sc_hd__dlymetal6s2s_1
*CAP
1 a[0] 0.00092477
2 *424:A 0.00092477
3 *424:A *429:A 0
4 *424:A *433:A 0.000143402
5 *424:A *132:27 0.000115866
*RES
1 a[0] *424:A 34.5846 
*END

*D_NET *4 0.00137504
*CONN
*P a[1] I
*I *435:A I *D sky130_fd_sc_hd__clkbuf_2
*CAP
1 a[1] 0.000506585
2 *435:A 0.000506585
3 *435:A y[7] 0
4 *435:A *423:A1 0.0002685
5 *435:A *423:B1 0
6 *435:A *60:50 0
7 *435:A *132:27 9.33652e-05
*RES
1 a[1] *435:A 22.8729 
*END

*D_NET *5 0.00102933
*CONN
*P a[2] I
*I *436:A I *D sky130_fd_sc_hd__buf_2
*CAP
1 a[2] 0.000506638
2 *436:A 0.000506638
3 *436:A *400:A2 1.02504e-05
4 *436:A *139:14 5.80706e-06
5 *436:A *149:12 0
*RES
1 a[2] *436:A 25.3179 
*END

*D_NET *6 0.000568251
*CONN
*P a[3] I
*I *437:A I *D sky130_fd_sc_hd__clkbuf_2
*CAP
1 a[3] 0.000284125
2 *437:A 0.000284125
3 *437:A *439:A 0
*RES
1 a[3] *437:A 20.3518 
*END

*D_NET *7 0.000475436
*CONN
*P a[4] I
*I *438:A I *D sky130_fd_sc_hd__buf_2
*CAP
1 a[4] 0.000237718
2 *438:A 0.000237718
3 *438:A *427:A 0
*RES
1 a[4] *438:A 19.9411 
*END

*D_NET *8 0.000951205
*CONN
*P a[5] I
*I *439:A I *D sky130_fd_sc_hd__clkbuf_2
*CAP
1 a[5] 0.00046306
2 *439:A 0.00046306
3 *439:A *127:20 2.50849e-05
4 *437:A *439:A 0
*RES
1 a[5] *439:A 18.9716 
*END

*D_NET *9 0.00169657
*CONN
*P a[6] I
*I *440:A I *D sky130_fd_sc_hd__clkbuf_2
*CAP
1 a[6] 0.000535358
2 *440:A 0.000535358
3 *440:A y[1] 3.67252e-05
4 *440:A *426:A 0.000589127
*RES
1 a[6] *440:A 26.6214 
*END

*D_NET *10 0.00142708
*CONN
*P a[7] I
*I *441:A I *D sky130_fd_sc_hd__buf_1
*CAP
1 a[7] 0.000510345
2 *441:A 0.000510345
3 *441:A *414:A 2.28499e-05
4 *441:A *414:B 2.14314e-05
5 *441:A *128:14 1.74352e-05
6 *441:A *133:14 5.62995e-05
7 *441:A *148:20 0.000288372
*RES
1 a[7] *441:A 24.9786 
*END

*D_NET *11 0.00150717
*CONN
*P b[0] I
*I *442:A I *D sky130_fd_sc_hd__clkbuf_2
*CAP
1 b[0] 0.00047919
2 *442:A 0.00047919
3 *442:A *430:A 0.000271352
4 *442:A *431:A 0.000277434
*RES
1 b[0] *442:A 26.6732 
*END

*D_NET *12 0.00110681
*CONN
*P b[1] I
*I *425:A I *D sky130_fd_sc_hd__dlymetal6s2s_1
*CAP
1 b[1] 0.000525056
2 *425:A 0.000525056
3 *425:A *124:14 5.66971e-05
*RES
1 b[1] *425:A 24.2643 
*END

*D_NET *13 0.00188089
*CONN
*P b[2] I
*I *426:A I *D sky130_fd_sc_hd__buf_2
*CAP
1 b[2] 0.000535195
2 *426:A 0.000535195
3 *426:A y[1] 0
4 *426:A *343:B1 0.000156397
5 *426:A *125:12 6.4976e-05
6 *440:A *426:A 0.000589127
*RES
1 b[2] *426:A 29.1203 
*END

*D_NET *14 0.00069675
*CONN
*P b[3] I
*I *427:A I *D sky130_fd_sc_hd__clkbuf_2
*CAP
1 b[3] 0.00034176
2 *427:A 0.00034176
3 *427:A *384:A 1.32293e-05
4 *427:A *146:16 0
5 *438:A *427:A 0
*RES
1 b[3] *427:A 21.8697 
*END

*D_NET *15 0.00167424
*CONN
*P b[4] I
*I *428:A I *D sky130_fd_sc_hd__clkbuf_2
*CAP
1 b[4] 0.000556398
2 *428:A 0.000556398
3 *428:A y[6] 0.00039674
4 *428:A *127:20 2.12733e-05
5 *428:A *141:14 0.000143427
*RES
1 b[4] *428:A 27.4429 
*END

*D_NET *16 0.00182373
*CONN
*P b[5] I
*I *429:A I *D sky130_fd_sc_hd__clkbuf_2
*CAP
1 b[5] 0.000796439
2 *429:A 0.000796439
3 *429:A *433:A 0.000230855
4 *424:A *429:A 0
*RES
1 b[5] *429:A 28.5143 
*END

*D_NET *17 0.00167165
*CONN
*P b[6] I
*I *430:A I *D sky130_fd_sc_hd__clkbuf_2
*CAP
1 b[6] 0.000700151
2 *430:A 0.000700151
3 *442:A *430:A 0.000271352
*RES
1 b[6] *430:A 27.6929 
*END

*D_NET *18 0.00152966
*CONN
*P b[7] I
*I *431:A I *D sky130_fd_sc_hd__buf_1
*CAP
1 b[7] 0.00053214
2 *431:A 0.00053214
3 *431:A *129:14 0.000151224
4 *431:A *149:8 3.67252e-05
5 *442:A *431:A 0.000277434
*RES
1 b[7] *431:A 25.8536 
*END

*D_NET *19 0.00121304
*CONN
*P sel[0] I
*I *432:A I *D sky130_fd_sc_hd__clkbuf_2
*CAP
1 sel[0] 0.000556529
2 *432:A 0.000556529
3 *432:A *141:14 9.99853e-05
*RES
1 sel[0] *432:A 24.9786 
*END

*D_NET *20 0.000966934
*CONN
*P sel[1] I
*I *433:A I *D sky130_fd_sc_hd__clkbuf_2
*CAP
1 sel[1] 0.000296339
2 *433:A 0.000296339
3 *424:A *433:A 0.000143402
4 *429:A *433:A 0.000230855
*RES
1 sel[1] *433:A 21.6031 
*END

*D_NET *21 0.0013048
*CONN
*P sel[2] I
*I *434:A I *D sky130_fd_sc_hd__clkbuf_4
*CAP
1 sel[2] 0.000431397
2 *434:A 0.000431397
3 *434:A *130:6 0.000123902
4 *434:A *149:8 0.000318107
*RES
1 sel[2] *434:A 23.9964 
*END

*D_NET *22 0.000726545
*CONN
*P y[0] O
*I *443:X O *D sky130_fd_sc_hd__clkbuf_4
*CAP
1 y[0] 0.000355305
2 *443:X 0.000355305
3 y[0] *443:A 0
4 y[0] *60:91 9.60337e-06
5 y[0] *60:108 6.33223e-06
*RES
1 *443:X y[0] 19.1592 
*END

*D_NET *23 0.001192
*CONN
*P y[1] O
*I *444:X O *D sky130_fd_sc_hd__clkbuf_4
*CAP
1 y[1] 0.000577637
2 *444:X 0.000577637
3 *426:A y[1] 0
4 *440:A y[1] 3.67252e-05
*RES
1 *444:X y[1] 21.1949 
*END

*D_NET *24 0.00185028
*CONN
*P y[2] O
*I *445:X O *D sky130_fd_sc_hd__clkbuf_4
*CAP
1 y[2] 0.000734445
2 *445:X 0.000734445
3 y[2] *358:A2 2.24804e-05
4 y[2] *131:16 0.000358914
*RES
1 *445:X y[2] 26.9429 
*END

*D_NET *25 0.00105894
*CONN
*P y[3] O
*I *446:X O *D sky130_fd_sc_hd__clkbuf_4
*CAP
1 y[3] 0.00052947
2 *446:X 0.00052947
*RES
1 *446:X y[3] 24.0679 
*END

*D_NET *26 0.00102499
*CONN
*P y[4] O
*I *447:X O *D sky130_fd_sc_hd__clkbuf_4
*CAP
1 y[4] 0.000503709
2 *447:X 0.000503709
3 y[4] *133:14 1.757e-05
*RES
1 *447:X y[4] 24.5857 
*END

*D_NET *27 0.000749714
*CONN
*P y[5] O
*I *448:X O *D sky130_fd_sc_hd__clkbuf_4
*CAP
1 y[5] 0.000283912
2 *448:X 0.000283912
3 y[5] *127:20 6.77808e-05
4 y[5] *146:16 0.000114109
*RES
1 *448:X y[5] 19.4092 
*END

*D_NET *28 0.00158294
*CONN
*P y[6] O
*I *449:X O *D sky130_fd_sc_hd__clkbuf_4
*CAP
1 y[6] 0.000593099
2 *449:X 0.000593099
3 *428:A y[6] 0.00039674
*RES
1 *449:X y[6] 26.8485 
*END

*D_NET *29 0.000666025
*CONN
*P y[7] O
*I *450:X O *D sky130_fd_sc_hd__buf_2
*CAP
1 y[7] 0.0003253
2 *450:X 0.0003253
3 y[7] *450:A 9.15186e-06
4 y[7] *60:80 6.27272e-06
5 *435:A y[7] 0
*RES
1 *450:X y[7] 18.267 
*END

*D_NET *30 0.000447472
*CONN
*I *396:B2 I *D sky130_fd_sc_hd__o22a_1
*I *395:Y O *D sky130_fd_sc_hd__a21oi_1
*CAP
1 *396:B2 7.81405e-05
2 *395:Y 7.81405e-05
3 *396:B2 *395:A1 4.95181e-05
4 *396:B2 *395:A2 7.09773e-06
5 *396:B2 *396:B1 9.58126e-05
6 *396:B2 *397:C1 5.49544e-05
7 *396:B2 *128:35 7.18272e-05
8 *396:B2 *146:22 1.19813e-05
*RES
1 *395:Y *396:B2 21.225 
*END

*D_NET *31 0.000724464
*CONN
*I *397:C1 I *D sky130_fd_sc_hd__a311o_1
*I *396:X O *D sky130_fd_sc_hd__o22a_1
*CAP
1 *397:C1 0.000213716
2 *396:X 0.000213716
3 *397:C1 *395:B1 0.000137189
4 *397:C1 *396:B1 4.64059e-05
5 *397:C1 *114:12 2.38651e-06
6 *397:C1 *128:35 5.60962e-05
7 *396:B2 *397:C1 5.49544e-05
*RES
1 *396:X *397:C1 31.6536 
*END

*D_NET *32 0.00166497
*CONN
*I *398:B1 I *D sky130_fd_sc_hd__a31o_1
*I *397:X O *D sky130_fd_sc_hd__a311o_1
*CAP
1 *398:B1 0.000513201
2 *397:X 0.000513201
3 *398:B1 *392:B1 0
4 *398:B1 *397:A3 9.23979e-05
5 *398:B1 *398:A1 1.00332e-05
6 *398:B1 *399:A 0
7 *398:B1 *405:B1 0
8 *398:B1 *405:C1 0
9 *398:B1 *406:A1 7.83587e-05
10 *398:B1 *406:A2 0.000120331
11 *398:B1 *406:B1 5.49489e-05
12 *398:B1 *407:B 0.000266679
13 *398:B1 *33:6 1.58163e-05
14 *398:B1 *119:10 0
*RES
1 *397:X *398:B1 47.2071 
*END

*D_NET *33 0.00137229
*CONN
*I *405:A2 I *D sky130_fd_sc_hd__a211o_1
*I *406:A2 I *D sky130_fd_sc_hd__a21o_1
*I *399:X O *D sky130_fd_sc_hd__and2_1
*CAP
1 *405:A2 0.000115223
2 *406:A2 0.000250123
3 *399:X 3.19162e-05
4 *33:6 0.000397262
5 *405:A2 *382:A2 9.25014e-06
6 *405:A2 *399:A 4.68854e-05
7 *405:A2 *399:B 5.77092e-05
8 *405:A2 *405:A1 6.12499e-05
9 *405:A2 *405:C1 0.000238122
10 *406:A2 *406:B1 2.84026e-05
11 *398:B1 *406:A2 0.000120331
12 *398:B1 *33:6 1.58163e-05
*RES
1 *399:X *33:6 9.83571 
2 *33:6 *406:A2 13.8536 
3 *33:6 *405:A2 21.8179 
*END

*D_NET *34 0.00042893
*CONN
*I *401:B I *D sky130_fd_sc_hd__xnor2_1
*I *400:Y O *D sky130_fd_sc_hd__a21oi_1
*CAP
1 *401:B 7.19912e-05
2 *400:Y 7.19912e-05
3 *401:B *400:A1 4.06715e-05
4 *401:B *400:A2 1.30833e-05
5 *401:B *400:B1 0.000124591
6 *401:B *128:31 5.33005e-05
7 *401:B *129:21 5.33005e-05
*RES
1 *400:Y *401:B 29.7786 
*END

*D_NET *35 0.00179057
*CONN
*I *402:A I *D sky130_fd_sc_hd__or2b_1
*I *403:B_N I *D sky130_fd_sc_hd__or2b_1
*I *401:Y O *D sky130_fd_sc_hd__xnor2_1
*CAP
1 *402:A 0.000258543
2 *403:B_N 8.61057e-05
3 *401:Y 0.000103848
4 *35:12 0.000448496
5 *402:A *402:B_N 6.38796e-05
6 *402:A *403:A 9.67754e-05
7 *402:A *404:B 0.000143427
8 *403:B_N *402:B_N 5.52302e-05
9 *35:12 *64:51 0.000267893
10 *35:12 *129:34 0.00026637
*RES
1 *401:Y *35:12 22.1929 
2 *35:12 *403:B_N 11.3893 
3 *35:12 *402:A 14.3714 
*END

*D_NET *36 0.00139323
*CONN
*I *419:A1 I *D sky130_fd_sc_hd__a311o_1
*I *418:A1 I *D sky130_fd_sc_hd__a21oi_1
*I *404:A I *D sky130_fd_sc_hd__nand2_1
*I *402:X O *D sky130_fd_sc_hd__or2b_1
*CAP
1 *419:A1 7.69885e-05
2 *418:A1 0.000127372
3 *404:A 3.15403e-05
4 *402:X 0.000101581
5 *36:21 0.000355915
6 *36:6 0.000284676
7 *404:A *73:30 3.45371e-05
8 *418:A1 *419:A3 9.77072e-05
9 *418:A1 *50:18 4.5632e-05
10 *419:A1 *419:A3 9.00853e-05
11 *419:A1 *133:24 3.99614e-06
12 *36:6 *73:30 0.000111321
13 *36:21 *73:30 3.18747e-05
*RES
1 *402:X *36:6 10.6571 
2 *36:6 *404:A 10.0321 
3 *36:6 *36:21 10.9821 
4 *36:21 *418:A1 11.0679 
5 *36:21 *419:A1 10.675 
*END

*D_NET *37 0.000637572
*CONN
*I *404:B I *D sky130_fd_sc_hd__nand2_1
*I *403:X O *D sky130_fd_sc_hd__or2b_1
*CAP
1 *404:B 0.000149318
2 *403:X 0.000149318
3 *404:B *402:B_N 5.46532e-05
4 *404:B *73:30 0.000140855
5 *402:A *404:B 0.000143427
*RES
1 *403:X *404:B 22.4393 
*END

*D_NET *38 0.00450876
*CONN
*I *405:B1 I *D sky130_fd_sc_hd__a211o_1
*I *407:A I *D sky130_fd_sc_hd__nand2_1
*I *404:Y O *D sky130_fd_sc_hd__nand2_1
*CAP
1 *405:B1 0.000314227
2 *407:A 0
3 *404:Y 0.00155483
4 *38:22 0.00186905
5 *405:B1 *393:A 5.33005e-05
6 *405:B1 *398:A1 9.11048e-06
7 *405:B1 *399:A 5.33614e-05
8 *405:B1 *405:C1 0.000181525
9 *405:B1 *39:6 2.72695e-05
10 *405:B1 *104:33 2.98004e-05
11 *405:B1 *112:25 2.21254e-05
12 *38:22 *395:B1 0.000135773
13 *38:22 *420:A2 0
14 *38:22 *39:6 6.05161e-06
15 *38:22 *39:21 0.000210013
16 *38:22 *50:18 3.21078e-05
17 *38:22 *73:43 1.02132e-05
18 *398:B1 *405:B1 0
*RES
1 *404:Y *38:22 34.1134 
2 *38:22 *407:A 9.3 
3 *38:22 *405:B1 24.1571 
*END

*D_NET *39 0.00469492
*CONN
*I *419:A2 I *D sky130_fd_sc_hd__a311o_1
*I *418:A2 I *D sky130_fd_sc_hd__a21oi_1
*I *412:A2 I *D sky130_fd_sc_hd__a31o_1
*I *405:X O *D sky130_fd_sc_hd__a211o_1
*CAP
1 *419:A2 0.000389958
2 *418:A2 0
3 *412:A2 0.000165264
4 *405:X 0.000115574
5 *39:21 0.00162215
6 *39:6 0.00151303
7 *412:A2 *382:A2 0
8 *412:A2 *397:A3 0
9 *412:A2 *407:B 3.17163e-05
10 *412:A2 *412:A1 1.00887e-05
11 *412:A2 *412:A3 0.000125542
12 *412:A2 *126:12 6.94441e-06
13 *419:A2 *419:A3 2.12474e-05
14 *419:A2 *419:B1 7.33185e-06
15 *419:A2 *419:C1 7.71262e-05
16 *419:A2 *50:18 3.92015e-05
17 *419:A2 *73:12 3.48023e-05
18 *419:A2 *133:24 2.59355e-05
19 *419:A2 *133:45 3.10885e-05
20 *39:6 *405:C1 3.69047e-06
21 *39:21 *408:A1 2.59355e-05
22 *39:21 *408:A2 2.89114e-05
23 *39:21 *409:B2 7.53109e-06
24 *39:21 *50:18 1.03721e-05
25 *39:21 *73:43 0.000158143
26 *405:B1 *39:6 2.72695e-05
27 *38:22 *39:6 6.05161e-06
28 *38:22 *39:21 0.000210013
*RES
1 *405:X *39:6 10.6571 
2 *39:6 *412:A2 21.4607 
3 *39:6 *39:21 15.2321 
4 *39:21 *418:A2 9.3 
5 *39:21 *419:A2 24.5946 
*END

*D_NET *40 0.000931501
*CONN
*I *407:B I *D sky130_fd_sc_hd__nand2_1
*I *406:X O *D sky130_fd_sc_hd__a21o_1
*CAP
1 *407:B 0.000253691
2 *406:X 0.000253691
3 *407:B *405:C1 0.000125724
4 *398:B1 *407:B 0.000266679
5 *412:A2 *407:B 3.17163e-05
*RES
1 *406:X *407:B 31.8321 
*END

*D_NET *41 0.000267335
*CONN
*I *412:A3 I *D sky130_fd_sc_hd__a31o_1
*I *407:Y O *D sky130_fd_sc_hd__nand2_1
*CAP
1 *412:A3 7.08968e-05
2 *407:Y 7.08968e-05
3 *412:A2 *412:A3 0.000125542
*RES
1 *407:Y *412:A3 29.2429 
*END

*D_NET *42 0.000703809
*CONN
*I *409:B2 I *D sky130_fd_sc_hd__o22a_1
*I *408:Y O *D sky130_fd_sc_hd__a21oi_1
*CAP
1 *409:B2 0.000175069
2 *408:Y 0.000175069
3 *409:B2 *409:A2 5.33005e-05
4 *409:B2 *411:C1 4.46686e-05
5 *409:B2 *73:43 7.43578e-06
6 *409:B2 *139:14 0.000120368
7 *409:B2 *143:10 0.000120368
8 *39:21 *409:B2 7.53109e-06
*RES
1 *408:Y *409:B2 31.1536 
*END

*D_NET *43 0.000256746
*CONN
*I *411:B1 I *D sky130_fd_sc_hd__a311o_1
*I *409:X O *D sky130_fd_sc_hd__o22a_1
*CAP
1 *411:B1 4.04342e-05
2 *409:X 4.04342e-05
3 *411:B1 *409:A2 9.67754e-05
4 *411:B1 *411:A1 1.62025e-05
5 *411:B1 *411:A2 2.41459e-05
6 *411:B1 *411:C1 3.87535e-05
*RES
1 *409:X *411:B1 19.975 
*END

*D_NET *44 0.00114336
*CONN
*I *411:C1 I *D sky130_fd_sc_hd__a311o_1
*I *410:Y O *D sky130_fd_sc_hd__nor2_1
*CAP
1 *411:C1 0.00021438
2 *410:Y 0.00021438
3 *411:C1 *409:A1 7.01492e-05
4 *411:C1 *409:A2 5.765e-05
5 *411:C1 *410:A 0
6 *411:C1 *411:A1 9.93578e-05
7 *411:C1 *56:26 6.00551e-05
8 *411:C1 *60:14 1.58163e-05
9 *411:C1 *147:29 0.000149952
10 *411:C1 *147:31 0.000178192
11 *409:B2 *411:C1 4.46686e-05
12 *411:B1 *411:C1 3.87535e-05
*RES
1 *410:Y *411:C1 25.3857 
*END

*D_NET *45 0.000938382
*CONN
*I *412:B1 I *D sky130_fd_sc_hd__a31o_1
*I *411:X O *D sky130_fd_sc_hd__a311o_1
*CAP
1 *412:B1 0.000223221
2 *411:X 0.000223221
3 *412:B1 *378:A2 5.65955e-05
4 *412:B1 *378:B1 5.49489e-05
5 *412:B1 *379:B2 0.000136676
6 *412:B1 *56:26 1.8461e-05
7 *412:B1 *56:37 0.000143346
8 *412:B1 *126:12 5.49995e-05
9 *412:B1 *145:34 2.6913e-05
*RES
1 *411:X *412:B1 23.6714 
*END

*D_NET *46 0.000346338
*CONN
*I *417:A I *D sky130_fd_sc_hd__xnor2_1
*I *413:X O *D sky130_fd_sc_hd__o31a_1
*CAP
1 *417:A 0.000120009
2 *413:X 0.000120009
3 *417:A *56:20 1.32293e-05
4 *417:A *128:14 9.30918e-05
*RES
1 *413:X *417:A 21.1893 
*END

*D_NET *47 0.00158525
*CONN
*I *420:A2 I *D sky130_fd_sc_hd__o21ba_1
*I *416:A I *D sky130_fd_sc_hd__or2_1
*I *421:B I *D sky130_fd_sc_hd__nand2_1
*I *414:X O *D sky130_fd_sc_hd__and2_1
*CAP
1 *420:A2 0.000227221
2 *416:A 0
3 *421:B 6.37471e-05
4 *414:X 0.000147696
5 *47:12 6.37471e-05
6 *47:10 0.000374917
7 *420:A2 *422:B1 8.85943e-05
8 *420:A2 *73:12 5.80706e-06
9 *420:A2 *133:24 0.000183156
10 *421:B *323:A 3.49456e-06
11 *421:B *416:B 4.97967e-05
12 *421:B *417:B 5.50052e-05
13 *421:B *48:6 2.85234e-05
14 *421:B *56:10 4.37365e-05
15 *47:10 *414:B 5.71472e-05
16 *47:10 *415:A 0
17 *47:10 *417:B 1.90936e-05
18 *47:10 *422:B1 2.74844e-05
19 *47:10 *133:14 0.000122284
20 *47:10 *133:24 2.37944e-05
21 *38:22 *420:A2 0
*RES
1 *414:X *47:10 16.5857 
2 *47:10 *47:12 4.5 
3 *47:12 *421:B 11.0857 
4 *47:12 *416:A 9.3 
5 *47:10 *420:A2 18.4786 
*END

*D_NET *48 0.00256364
*CONN
*I *416:B I *D sky130_fd_sc_hd__or2_1
*I *422:B1 I *D sky130_fd_sc_hd__o221a_1
*I *415:Y O *D sky130_fd_sc_hd__nor2_1
*CAP
1 *416:B 0.00027669
2 *422:B1 0.000263448
3 *415:Y 6.45204e-05
4 *48:6 0.000604659
5 *416:B *323:A 0.000215454
6 *416:B *56:10 0.000197878
7 *416:B *128:14 0.000166965
8 *422:B1 *394:B 6.83557e-05
9 *422:B1 *415:A 0
10 *422:B1 *417:B 1.90936e-05
11 *422:B1 *422:B2 1.19813e-05
12 *422:B1 *422:C1 0.00013688
13 *48:6 *415:A 7.34839e-06
14 *48:6 *56:10 2.4211e-05
15 *48:6 *56:20 4.20832e-05
16 *48:6 *128:14 0.000269669
17 *420:A2 *422:B1 8.85943e-05
18 *421:B *416:B 4.97967e-05
19 *421:B *48:6 2.85234e-05
20 *47:10 *422:B1 2.74844e-05
*RES
1 *415:Y *48:6 11.8893 
2 *48:6 *422:B1 23.9786 
3 *48:6 *416:B 16.3357 
*END

*D_NET *49 0.00144013
*CONN
*I *417:B I *D sky130_fd_sc_hd__xnor2_1
*I *416:X O *D sky130_fd_sc_hd__or2_1
*CAP
1 *417:B 0.000540064
2 *416:X 0.000540064
3 *417:B *415:B 9.54798e-06
4 *417:B *56:10 5.33005e-05
5 *417:B *56:20 0.000101982
6 *417:B *128:14 0.000101982
7 *421:B *417:B 5.50052e-05
8 *422:B1 *417:B 1.90936e-05
9 *47:10 *417:B 1.90936e-05
*RES
1 *416:X *417:B 38.3292 
*END

*D_NET *50 0.0020725
*CONN
*I *419:A3 I *D sky130_fd_sc_hd__a311o_1
*I *418:B1 I *D sky130_fd_sc_hd__a21oi_1
*I *417:Y O *D sky130_fd_sc_hd__xnor2_1
*CAP
1 *419:A3 7.83411e-05
2 *418:B1 0
3 *417:Y 0.000503078
4 *50:18 0.000581419
5 *419:A3 *419:C1 0.00011599
6 *419:A3 *133:24 0.000103296
7 *50:18 *419:C1 9.952e-06
8 *50:18 *56:20 0.000344074
9 *50:18 *73:12 0
10 *418:A1 *419:A3 9.77072e-05
11 *418:A1 *50:18 4.5632e-05
12 *419:A1 *419:A3 9.00853e-05
13 *419:A2 *419:A3 2.12474e-05
14 *419:A2 *50:18 3.92015e-05
15 *38:22 *50:18 3.21078e-05
16 *39:21 *50:18 1.03721e-05
*RES
1 *417:Y *50:18 27.6571 
2 *50:18 *418:B1 9.3 
3 *50:18 *419:A3 12.6661 
*END

*D_NET *51 0.00210644
*CONN
*I *423:A1 I *D sky130_fd_sc_hd__o21ai_1
*I *418:Y O *D sky130_fd_sc_hd__a21oi_1
*CAP
1 *423:A1 0.000770896
2 *418:Y 0.000770896
3 *423:A1 *419:B1 1.01912e-05
4 *423:A1 *420:B1_N 2.06112e-05
5 *423:A1 *423:A2 0.00025291
6 *423:A1 *56:20 0
7 *423:A1 *133:24 1.24368e-05
8 *435:A *423:A1 0.0002685
*RES
1 *418:Y *423:A1 41.2954 
*END

*D_NET *52 0.00100682
*CONN
*I *423:A2 I *D sky130_fd_sc_hd__o21ai_1
*I *419:X O *D sky130_fd_sc_hd__a311o_1
*CAP
1 *423:A2 0.000273298
2 *419:X 0.000273298
3 *423:A2 *450:A 5.68713e-05
4 *423:A2 *133:24 5.04589e-05
5 *423:A2 *134:18 9.99853e-05
6 *423:A1 *423:A2 0.00025291
*RES
1 *419:X *423:A2 24.475 
*END

*D_NET *53 0.000532951
*CONN
*I *422:B2 I *D sky130_fd_sc_hd__o221a_1
*I *420:X O *D sky130_fd_sc_hd__o21ba_1
*CAP
1 *422:B2 0.000188453
2 *420:X 0.000188453
3 *422:B2 *394:B 2.12733e-05
4 *422:B2 *60:50 2.34594e-05
5 *422:B2 *123:14 2.03945e-05
6 *422:B2 *133:24 7.89362e-05
7 *422:B1 *422:B2 1.19813e-05
*RES
1 *420:X *422:B2 30.85 
*END

*D_NET *54 0.000612997
*CONN
*I *422:C1 I *D sky130_fd_sc_hd__o221a_1
*I *421:Y O *D sky130_fd_sc_hd__nand2_1
*CAP
1 *422:C1 0.000189995
2 *421:Y 0.000189995
3 *422:C1 *394:B 9.61273e-05
4 *422:B1 *422:C1 0.00013688
*RES
1 *421:Y *422:C1 31.7429 
*END

*D_NET *55 0.00105077
*CONN
*I *423:B1 I *D sky130_fd_sc_hd__o21ai_1
*I *422:X O *D sky130_fd_sc_hd__o221a_1
*CAP
1 *423:B1 0.000318408
2 *422:X 0.000318408
3 *423:B1 *60:50 0.000413952
4 *423:B1 *132:27 0
5 *435:A *423:B1 0
*RES
1 *422:X *423:B1 33.7429 
*END

*D_NET *56 0.0170018
*CONN
*I *421:A I *D sky130_fd_sc_hd__nand2_1
*I *345:A3 I *D sky130_fd_sc_hd__a31o_1
*I *329:A3 I *D sky130_fd_sc_hd__a311o_1
*I *324:B I *D sky130_fd_sc_hd__and2_2
*I *357:A3 I *D sky130_fd_sc_hd__a311o_1
*I *367:A3 I *D sky130_fd_sc_hd__a31o_1
*I *381:A3 I *D sky130_fd_sc_hd__a311o_1
*I *397:A3 I *D sky130_fd_sc_hd__a311o_1
*I *411:A3 I *D sky130_fd_sc_hd__a311o_1
*I *323:Y O *D sky130_fd_sc_hd__nor2b_4
*CAP
1 *421:A 2.08998e-05
2 *345:A3 0.000448503
3 *329:A3 8.59403e-05
4 *324:B 1.21804e-05
5 *357:A3 0.000219386
6 *367:A3 0.000303215
7 *381:A3 0
8 *397:A3 0.000278718
9 *411:A3 0
10 *323:Y 0.000362474
11 *56:110 0.0012637
12 *56:83 0.000918761
13 *56:57 0.00105043
14 *56:48 0.000572404
15 *56:37 0.000534245
16 *56:26 0.000756838
17 *56:20 0.00148146
18 *56:10 0.00114163
19 *324:B *57:20 5.49489e-05
20 *324:B *131:27 5.49489e-05
21 *329:A3 *328:A 4.29046e-05
22 *329:A3 *329:B1 7.07579e-05
23 *329:A3 *329:C1 0.000217187
24 *329:A3 *123:47 1.42767e-05
25 *345:A3 *329:A2 0.000121891
26 *345:A3 *329:B1 5.28442e-06
27 *345:A3 *345:A2 5.49544e-05
28 *345:A3 *346:A2 0
29 *345:A3 *134:42 0
30 *345:A3 *134:53 2.84109e-05
31 *345:A3 *147:16 0
32 *345:A3 *149:58 4.66056e-05
33 *357:A3 *357:A2 3.50746e-05
34 *357:A3 *369:B1 8.02652e-05
35 *357:A3 *369:B2 3.02892e-05
36 *357:A3 *370:A1 3.87102e-05
37 *357:A3 *446:A 0.00019437
38 *357:A3 *83:35 0.000358813
39 *357:A3 *126:74 0
40 *357:A3 *144:47 1.05311e-05
41 *367:A3 *364:A2 5.85035e-05
42 *367:A3 *367:A1 1.00073e-05
43 *367:A3 *367:A2 0.000170279
44 *367:A3 *370:C1 5.20359e-06
45 *367:A3 *144:47 9.71197e-05
46 *397:A3 *114:12 0.000625572
47 *397:A3 *126:12 7.96727e-05
48 *56:20 *415:A 1.51018e-05
49 *56:20 *419:B1 0
50 *56:20 *128:14 1.49451e-05
51 *56:20 *149:12 0
52 *56:26 *409:A2 0.000291268
53 *56:26 *411:A2 0.000201705
54 *56:26 *60:14 5.47001e-05
55 *56:37 *378:A2 5.49489e-05
56 *56:37 *378:B1 5.49489e-05
57 *56:37 *411:A1 5.38444e-06
58 *56:37 *411:A2 1.02132e-05
59 *56:37 *145:34 9.58181e-05
60 *56:37 *145:47 4.17433e-05
61 *56:37 *145:58 0.000129297
62 *56:48 *114:12 0.000148658
63 *56:48 *126:12 0.000140092
64 *56:57 *370:A1 8.77631e-05
65 *56:57 *90:18 0.000101771
66 *56:57 *114:12 0.000433666
67 *56:57 *126:12 0.000325386
68 *56:57 *126:23 0.000130283
69 *56:57 *126:36 0.00014925
70 *56:57 *126:74 0
71 *56:57 *144:47 6.42145e-05
72 *56:83 *380:B 4.65467e-05
73 *56:83 *419:B1 0
74 *56:83 *57:20 4.13122e-06
75 *56:83 *60:14 5.7119e-05
76 *56:110 *332:A 0.000127973
77 *56:110 *380:B 1.42331e-05
78 *56:110 *57:8 5.49489e-05
79 *56:110 *57:20 2.99013e-05
80 *56:110 *57:67 0.000269476
81 *56:110 *57:92 0.000120648
82 *56:110 *57:122 1.00375e-05
83 *56:110 *64:6 0.000141734
84 *56:110 *123:27 9.41694e-05
85 *56:110 *123:38 1.3011e-05
86 *56:110 *131:27 0.000226074
87 *56:110 *149:58 0.00014852
88 *398:B1 *397:A3 9.23979e-05
89 *411:C1 *56:26 6.00551e-05
90 *412:A2 *397:A3 0
91 *412:B1 *56:26 1.8461e-05
92 *412:B1 *56:37 0.000143346
93 *416:B *56:10 0.000197878
94 *417:A *56:20 1.32293e-05
95 *417:B *56:10 5.33005e-05
96 *417:B *56:20 0.000101982
97 *421:B *56:10 4.37365e-05
98 *423:A1 *56:20 0
99 *48:6 *56:10 2.4211e-05
100 *48:6 *56:20 4.20832e-05
101 *50:18 *56:20 0.000344074
*RES
1 *323:Y *56:10 14.4964 
2 *56:10 *56:20 18.0179 
3 *56:20 *56:26 12.2321 
4 *56:26 *411:A3 9.3 
5 *56:26 *56:37 9.57143 
6 *56:37 *397:A3 21.8179 
7 *56:37 *56:48 1.94643 
8 *56:48 *381:A3 13.8 
9 *56:48 *56:57 14.0893 
10 *56:57 *367:A3 17.9429 
11 *56:57 *357:A3 20.8 
12 *56:20 *56:83 3.16071 
13 *56:83 *324:B 14.3357 
14 *56:83 *56:110 33.8214 
15 *56:110 *329:A3 16.9607 
16 *56:110 *345:A3 22.05 
17 *56:10 *421:A 9.72857 
*END

*D_NET *57 0.0177831
*CONN
*I *355:B1 I *D sky130_fd_sc_hd__o22a_1
*I *369:B1 I *D sky130_fd_sc_hd__o22a_1
*I *343:B1 I *D sky130_fd_sc_hd__o22a_1
*I *326:B1 I *D sky130_fd_sc_hd__o22a_1
*I *420:B1_N I *D sky130_fd_sc_hd__o21ba_1
*I *409:B1 I *D sky130_fd_sc_hd__o22a_1
*I *396:B1 I *D sky130_fd_sc_hd__o22a_1
*I *379:B1 I *D sky130_fd_sc_hd__o22a_1
*I *324:X O *D sky130_fd_sc_hd__and2_2
*CAP
1 *355:B1 1.32915e-05
2 *369:B1 0.000446261
3 *343:B1 0.00125213
4 *326:B1 0
5 *420:B1_N 0.000400193
6 *409:B1 6.43735e-05
7 *396:B1 0.0008384
8 *379:B1 2.18313e-05
9 *324:X 3.98109e-05
10 *57:122 0.00165094
11 *57:92 0.00145332
12 *57:67 0.000840983
13 *57:63 0.00150998
14 *57:22 0.000967715
15 *57:20 0.000485204
16 *57:8 0.000432134
17 *343:B1 *329:B1 4.60311e-05
18 *343:B1 *343:A2 2.10657e-05
19 *343:B1 *343:B2 4.10796e-05
20 *343:B1 *60:80 0.000221411
21 *343:B1 *60:91 0.000548948
22 *343:B1 *125:12 2.27766e-05
23 *343:B1 *147:16 0
24 *355:B1 *355:B2 3.45589e-05
25 *369:B1 *357:A1 5.49489e-05
26 *369:B1 *357:C1 0.000100037
27 *369:B1 *368:B1 2.47155e-06
28 *369:B1 *369:A2 8.15316e-05
29 *369:B1 *369:B2 0.000156349
30 *369:B1 *370:A1 4.37542e-05
31 *369:B1 *143:62 9.1197e-05
32 *369:B1 *144:47 6.1844e-05
33 *379:B1 *381:B1 9.99853e-05
34 *379:B1 *139:14 7.83179e-05
35 *396:B1 *378:B1 0.000216199
36 *396:B1 *379:B2 0.000169095
37 *396:B1 *381:B1 0.000224657
38 *396:B1 *395:A1 9.58126e-05
39 *396:B1 *395:B1 0.000549781
40 *396:B1 *129:14 1.70522e-05
41 *396:B1 *129:34 0
42 *396:B1 *129:49 0
43 *396:B1 *145:58 7.70035e-05
44 *409:B1 *64:51 5.80494e-05
45 *409:B1 *139:14 0.000170755
46 *409:B1 *147:44 5.51649e-05
47 *420:B1_N *325:B2 0.000198002
48 *420:B1_N *341:A 1.84433e-05
49 *420:B1_N *73:12 0
50 *420:B1_N *73:30 0
51 *420:B1_N *123:14 0.000459586
52 *420:B1_N *123:27 0.000209562
53 *420:B1_N *133:24 0.00010326
54 *57:20 *332:A 8.6229e-06
55 *57:20 *131:18 0.000219366
56 *57:20 *131:27 8.49677e-05
57 *57:22 *131:18 0.000182806
58 *57:22 *139:14 4.77002e-05
59 *57:63 *332:A 0.000118118
60 *57:63 *380:B 0
61 *57:67 *332:A 0.000139215
62 *57:67 *62:22 0.000395805
63 *57:67 *64:8 1.21258e-05
64 *57:92 *123:27 1.69115e-05
65 *57:92 *134:18 6.20031e-05
66 *57:122 *332:A 3.34366e-05
67 *57:122 *336:A1 0
68 *57:122 *347:A2 0
69 *57:122 *351:B 0
70 *57:122 *355:B2 0.000216132
71 *57:122 *357:C1 3.50746e-05
72 *57:122 *380:B 0