*SPEF "ieee 1481-1999"
*DESIGN "alu"
*DATE "11:11:11 Fri 11 11, 1111"
*VENDOR "OpenRCX"
*PROGRAM "Parallel Extraction"
*VERSION "1.0"
*DESIGN_FLOW "NAME_SCOPE LOCAL" "PIN_CAP NONE"
*DIVIDER /
*DELIMITER :
*BUS_DELIMITER []
*T_UNIT 1 NS
*C_UNIT 1 PF
*R_UNIT 1 OHM
*L_UNIT 1 HENRY

*NAME_MAP
*3 a[0]
*4 a[1]
*5 a[2]
*6 a[3]
*7 a[4]
*8 a[5]
*9 a[6]
*10 a[7]
*11 b[0]
*12 b[1]
*13 b[2]
*14 b[3]
*15 b[4]
*16 b[5]
*17 b[6]
*18 b[7]
*19 sel[0]
*20 sel[1]
*21 sel[2]
*22 y[0]
*23 y[1]
*24 y[2]
*25 y[3]
*26 y[4]
*27 y[5]
*28 y[6]
*29 y[7]
*30 _000_
*31 _001_
*32 _002_
*33 _003_
*34 _004_
*35 _005_
*36 _006_
*37 _007_
*38 _008_
*39 _009_
*40 _010_
*41 _011_
*42 _012_
*43 _013_
*44 _014_
*45 _015_
*46 _016_
*47 _017_
*48 _018_
*49 _019_
*50 _020_
*51 _021_
*52 _022_
*53 _023_
*54 _024_
*55 _025_
*56 _026_
*57 _027_
*58 _028_
*59 _029_
*60 _030_
*61 _031_
*62 _032_
*63 _033_
*64 _034_
*65 _035_
*66 _036_
*67 _037_
*68 _038_
*69 _039_
*70 _040_
*71 _041_
*72 _042_
*73 _043_
*74 _044_
*75 _045_
*76 _046_
*77 _047_
*78 _048_
*79 _049_
*80 _050_
*81 _051_
*82 _052_
*83 _053_
*84 _054_
*85 _055_
*86 _056_
*87 _057_
*88 _058_
*89 _059_
*90 _060_
*91 _061_
*92 _062_
*93 _063_
*94 _064_
*95 _065_
*96 _066_
*97 _067_
*98 _068_
*99 _069_
*100 _070_
*101 _071_
*102 _072_
*103 _073_
*104 _074_
*105 _075_
*106 _076_
*107 _077_
*108 _078_
*109 _079_
*110 _080_
*111 _081_
*112 _082_
*113 _083_
*114 _084_
*115 _085_
*116 _086_
*117 _087_
*118 _088_
*119 _089_
*120 _090_
*121 _091_
*122 _092_
*123 net1
*124 net10
*125 net11
*126 net12
*127 net13
*128 net14
*129 net15
*130 net16
*131 net17
*132 net18
*133 net19
*134 net2
*135 net20
*136 net21
*137 net22
*138 net23
*139 net24
*140 net25
*141 net26
*142 net27
*143 net3
*144 net4
*145 net5
*146 net6
*147 net7
*148 net8
*149 net9
*150 FILLER_0_0_14
*151 FILLER_0_0_26
*152 FILLER_0_0_35
*153 FILLER_0_0_43
*154 FILLER_0_0_53
*155 FILLER_0_0_57
*156 FILLER_0_0_65
*157 FILLER_0_0_69
*158 FILLER_0_0_78
*159 FILLER_0_0_85
*160 FILLER_0_10_15
*161 FILLER_0_10_23
*162 FILLER_0_10_27
*163 FILLER_0_10_29
*164 FILLER_0_10_3
*165 FILLER_0_10_41
*166 FILLER_0_10_53
*167 FILLER_0_10_61
*168 FILLER_0_10_72
*169 FILLER_0_10_85
*170 FILLER_0_10_89
*171 FILLER_0_11_18
*172 FILLER_0_11_26
*173 FILLER_0_11_3
*174 FILLER_0_11_32
*175 FILLER_0_11_44
*176 FILLER_0_11_57
*177 FILLER_0_11_65
*178 FILLER_0_11_75
*179 FILLER_0_11_83
*180 FILLER_0_11_9
*181 FILLER_0_12_12
*182 FILLER_0_12_54
*183 FILLER_0_12_66
*184 FILLER_0_12_7
*185 FILLER_0_12_76
*186 FILLER_0_12_88
*187 FILLER_0_13_14
*188 FILLER_0_13_25
*189 FILLER_0_13_45
*190 FILLER_0_13_70
*191 FILLER_0_13_85
*192 FILLER_0_14_13
*193 FILLER_0_14_21
*194 FILLER_0_14_27
*195 FILLER_0_14_29
*196 FILLER_0_14_37
*197 FILLER_0_14_50
*198 FILLER_0_14_57
*199 FILLER_0_14_74
*200 FILLER_0_14_89
*201 FILLER_0_1_21
*202 FILLER_0_1_3
*203 FILLER_0_1_55
*204 FILLER_0_1_57
*205 FILLER_0_1_65
*206 FILLER_0_1_7
*207 FILLER_0_1_77
*208 FILLER_0_2_17
*209 FILLER_0_2_25
*210 FILLER_0_2_40
*211 FILLER_0_2_52
*212 FILLER_0_2_64
*213 FILLER_0_2_7
*214 FILLER_0_2_72
*215 FILLER_0_2_82
*216 FILLER_0_2_85
*217 FILLER_0_2_89
*218 FILLER_0_3_11
*219 FILLER_0_3_25
*220 FILLER_0_3_3
*221 FILLER_0_3_37
*222 FILLER_0_3_49
*223 FILLER_0_3_66
*224 FILLER_0_4_16
*225 FILLER_0_4_29
*226 FILLER_0_4_3
*227 FILLER_0_4_41
*228 FILLER_0_4_51
*229 FILLER_0_4_59
*230 FILLER_0_4_74
*231 FILLER_0_4_89
*232 FILLER_0_5_20
*233 FILLER_0_5_31
*234 FILLER_0_5_37
*235 FILLER_0_5_55
*236 FILLER_0_5_60
*237 FILLER_0_5_66
*238 FILLER_0_5_7
*239 FILLER_0_6_26
*240 FILLER_0_6_44
*241 FILLER_0_6_52
*242 FILLER_0_6_68
*243 FILLER_0_6_81
*244 FILLER_0_6_89
*245 FILLER_0_7_16
*246 FILLER_0_7_24
*247 FILLER_0_7_32
*248 FILLER_0_7_36
*249 FILLER_0_7_48
*250 FILLER_0_7_57
*251 FILLER_0_7_63
*252 FILLER_0_7_68
*253 FILLER_0_7_80
*254 FILLER_0_8_3
*255 FILLER_0_8_44
*256 FILLER_0_8_49
*257 FILLER_0_8_57
*258 FILLER_0_8_72
*259 FILLER_0_8_83
*260 FILLER_0_8_85
*261 FILLER_0_8_89
*262 FILLER_0_9_13
*263 FILLER_0_9_20
*264 FILLER_0_9_28
*265 FILLER_0_9_57
*266 FILLER_0_9_89
*267 FILLER_0_9_9
*268 PHY_0
*269 PHY_1
*270 PHY_10
*271 PHY_11
*272 PHY_12
*273 PHY_13
*274 PHY_14
*275 PHY_15
*276 PHY_16
*277 PHY_17
*278 PHY_18
*279 PHY_19
*280 PHY_2
*281 PHY_20
*282 PHY_21
*283 PHY_22
*284 PHY_23
*285 PHY_24
*286 PHY_25
*287 PHY_26
*288 PHY_27
*289 PHY_28
*290 PHY_29
*291 PHY_3
*292 PHY_4
*293 PHY_5
*294 PHY_6
*295 PHY_7
*296 PHY_8
*297 PHY_9
*298 TAP_30
*299 TAP_31
*300 TAP_32
*301 TAP_33
*302 TAP_34
*303 TAP_35
*304 TAP_36
*305 TAP_37
*306 TAP_38
*307 TAP_39
*308 TAP_40
*309 TAP_41
*310 TAP_42
*311 TAP_43
*312 TAP_44
*313 TAP_45
*314 TAP_46
*315 TAP_47
*316 TAP_48
*317 TAP_49
*318 TAP_50
*319 TAP_51
*320 TAP_52
*321 TAP_53
*322 TAP_54
*323 _093_
*324 _094_
*325 _095_
*326 _096_
*327 _097_
*328 _098_
*329 _099_
*330 _100_
*331 _101_
*332 _102_
*333 _103_
*334 _104_
*335 _105_
*336 _106_
*337 _107_
*338 _108_
*339 _109_
*340 _110_
*341 _111_
*342 _112_
*343 _113_
*344 _114_
*345 _115_
*346 _116_
*347 _117_
*348 _118_
*349 _119_
*350 _120_
*351 _121_
*352 _122_
*353 _123_
*354 _124_
*355 _125_
*356 _126_
*357 _127_
*358 _128_
*359 _129_
*360 _130_
*361 _131_
*362 _132_
*363 _133_
*364 _134_
*365 _135_
*366 _136_
*367 _137_
*368 _138_
*369 _139_
*370 _140_
*371 _141_
*372 _142_
*373 _143_
*374 _144_
*375 _145_
*376 _146_
*377 _147_
*378 _148_
*379 _149_
*380 _150_
*381 _151_
*382 _152_
*383 _153_
*384 _154_
*385 _155_
*386 _156_
*387 _157_
*388 _158_
*389 _159_
*390 _160_
*391 _161_
*392 _162_
*393 _163_
*394 _164_
*395 _165_
*396 _166_
*397 _167_
*398 _168_
*399 _169_
*400 _170_
*401 _171_
*402 _172_
*403 _173_
*404 _174_
*405 _175_
*406 _176_
*407 _177_
*408 _178_
*409 _179_
*410 _180_
*411 _181_
*412 _182_
*413 _183_
*414 _184_
*415 _185_
*416 _186_
*417 _187_
*418 _188_
*419 _189_
*420 _190_
*421 _191_
*422 _192_
*423 _193_
*424 input1
*425 input10
*426 input11
*427 input12
*428 input13
*429 input14
*430 input15
*431 input16
*432 input17
*433 input18
*434 input19
*435 input2
*436 input3
*437 input4
*438 input5
*439 input6
*440 input7
*441 input8
*442 input9
*443 output20
*444 output21
*445 output22
*446 output23
*447 output24
*448 output25
*449 output26
*450 output27

*PORTS
a[0] I
a[1] I
a[2] I
a[3] I
a[4] I
a[5] I
a[6] I
a[7] I
b[0] I
b[1] I
b[2] I
b[3] I
b[4] I
b[5] I
b[6] I
b[7] I
sel[0] I
sel[1] I
sel[2] I
y[0] O
y[1] O
y[2] O
y[3] O
y[4] O
y[5] O
y[6] O
y[7] O

*D_NET *3 0.00224863
*CONN
*P a[0] I
*I *424:A I *D sky130_fd_sc_hd__dlymetal6s2s_1
*CAP
1 a[0] 0.000989065
2 *424:A 0
3 *3:13 0.000989065
4 *3:13 *16:9 0
5 *3:13 *20:13 0.00015946
6 *3:13 *132:27 0.000111044
*RES
1 a[0] *3:13 43.1655 
2 *3:13 *424:A 23 
*END

*D_NET *4 0.00148208
*CONN
*P a[1] I
*I *435:A I *D sky130_fd_sc_hd__clkbuf_2
*CAP
1 a[1] 0.000552374
2 *435:A 0
3 *4:15 0.000552374
4 *4:15 y[7] 0
5 *4:15 *51:22 0.000272991
6 *4:15 *55:10 0
7 *4:15 *60:50 0
8 *4:15 *132:27 0.000104341
*RES
1 a[1] *4:15 29.5889 
2 *4:15 *435:A 23 
*END

*D_NET *5 0.00109106
*CONN
*P a[2] I
*I *436:A I *D sky130_fd_sc_hd__buf_2
*CAP
1 a[2] 0.00053677
2 *436:A 0
3 *5:19 0.00053677
4 *5:19 *400:A2 1.14452e-05
5 *5:19 *139:12 6.07611e-06
6 *5:19 *149:10 0
*RES
1 a[2] *5:19 28.3607 
2 *5:19 *436:A 23 
*END

*D_NET *6 0.000618408
*CONN
*P a[3] I
*I *437:A I *D sky130_fd_sc_hd__clkbuf_2
*CAP
1 a[3] 0.000309204
2 *437:A 0.000309204
3 *437:A *439:A 0
*RES
1 a[3] *437:A 49.6532 
*END

*D_NET *7 0.000512415
*CONN
*P a[4] I
*I *438:A I *D sky130_fd_sc_hd__buf_2
*CAP
1 a[4] 0.000256207
2 *438:A 0.000256207
3 *438:A *14:13 0
*RES
1 a[4] *438:A 49.1767 
*END

*D_NET *8 0.000988888
*CONN
*P a[5] I
*I *439:A I *D sky130_fd_sc_hd__clkbuf_2
*CAP
1 a[5] 0.000481434
2 *439:A 0.000481434
3 *439:A *127:20 2.60207e-05
4 *437:A *439:A 0
*RES
1 a[5] *439:A 48.0807 
*END

*D_NET *9 0.00184419
*CONN
*P a[6] I
*I *440:A I *D sky130_fd_sc_hd__clkbuf_2
*CAP
1 a[6] 0.000574981
2 *440:A 0
3 *9:9 0.000574981
4 *9:9 *13:13 0.000657567
5 *9:9 *23:12 3.66555e-05
*RES
1 a[6] *9:9 29.8729 
2 *9:9 *440:A 23 
*END

*D_NET *10 0.00151643
*CONN
*P a[7] I
*I *441:A I *D sky130_fd_sc_hd__buf_1
*CAP
1 a[7] 0.000554867
2 *441:A 0
3 *10:15 0.000554867
4 *10:15 *414:A 2.32004e-05
5 *10:15 *414:B 2.16583e-05
6 *10:15 *128:10 1.76557e-05
7 *10:15 *133:6 5.70419e-05
8 *10:15 *148:20 0.000287141
*RES
1 a[7] *10:15 27.9671 
2 *10:15 *441:A 23 
*END

*D_NET *11 0.00157402
*CONN
*P b[0] I
*I *442:A I *D sky130_fd_sc_hd__clkbuf_2
*CAP
1 b[0] 0.000513994
2 *442:A 0
3 *11:15 0.000513994
4 *11:15 *17:9 0.000269781
5 *11:15 *18:11 0.000276247
*RES
1 b[0] *11:15 33.986 
2 *11:15 *442:A 23 
*END

*D_NET *12 0.00116994
*CONN
*P b[1] I
*I *425:A I *D sky130_fd_sc_hd__dlymetal6s2s_1
*CAP
1 b[1] 0.000555829
2 *425:A 0
3 *12:9 0.000555829
4 *12:9 *124:14 5.82853e-05
*RES
1 b[1] *12:9 27.1386 
2 *12:9 *425:A 23 
*END

*D_NET *13 0.00203995
*CONN
*P b[2] I
*I *426:A I *D sky130_fd_sc_hd__buf_2
*CAP
1 b[2] 0.000578909
2 *426:A 0
3 *13:13 0.000578909
4 *13:13 y[1] 0
5 *13:13 *343:B1 0.000144494
6 *13:13 *57:103 1.51481e-05
7 *13:13 *125:12 6.49264e-05
8 *9:9 *13:13 0.000657567
*RES
1 b[2] *13:13 36.8269 
2 *13:13 *426:A 23 
*END

*D_NET *14 0.000750597
*CONN
*P b[3] I
*I *427:A I *D sky130_fd_sc_hd__clkbuf_2
*CAP
1 b[3] 0.000368499
2 *427:A 0
3 *14:13 0.000368499
4 *14:13 *384:A 1.35999e-05
5 *14:13 *146:14 0
6 *438:A *14:13 0
*RES
1 b[3] *14:13 28.4139 
2 *14:13 *427:A 23 
*END

*D_NET *15 0.00178139
*CONN
*P b[4] I
*I *428:A I *D sky130_fd_sc_hd__clkbuf_2
*CAP
1 b[4] 0.000599018
2 *428:A 0
3 *15:9 0.000599018
4 *15:9 *28:8 0.000414431
5 *15:9 *127:8 2.19403e-05
6 *15:9 *141:14 0.000146984
*RES
1 b[4] *15:9 30.8257 
2 *15:9 *428:A 23 
*END

*D_NET *16 0.00194261
*CONN
*P b[5] I
*I *429:A I *D sky130_fd_sc_hd__clkbuf_2
*CAP
1 b[5] 0.000854253
2 *429:A 0
3 *16:9 0.000854253
4 *16:9 *20:13 0.000234102
5 *3:13 *16:9 0
*RES
1 b[5] *16:9 32.0686 
2 *16:9 *429:A 23 
*END

*D_NET *17 0.00175914
*CONN
*P b[6] I
*I *430:A I *D sky130_fd_sc_hd__clkbuf_2
*CAP
1 b[6] 0.000744682
2 *430:A 0
3 *17:9 0.000744682
4 *11:15 *17:9 0.000269781
*RES
1 b[6] *17:9 31.1157 
2 *17:9 *430:A 23 
*END

*D_NET *18 0.0016142
*CONN
*P b[7] I
*I *431:A I *D sky130_fd_sc_hd__buf_1
*CAP
1 b[7] 0.000572735
2 *431:A 0
3 *18:11 0.000572735
4 *18:11 *129:6 0.000155826
5 *18:11 *149:6 3.66555e-05
6 *11:15 *18:11 0.000276247
*RES
1 b[7] *18:11 28.9821 
2 *18:11 *431:A 23 
*END

*D_NET *19 0.00127824
*CONN
*P sel[0] I
*I *432:A I *D sky130_fd_sc_hd__clkbuf_2
*CAP
1 sel[0] 0.000587924
2 *432:A 0
3 *19:9 0.000587924
4 *19:9 *141:14 0.000102389
*RES
1 sel[0] *19:9 27.9671 
2 *19:9 *432:A 23 
*END

*D_NET *20 0.00103529
*CONN
*P sel[1] I
*I *433:A I *D sky130_fd_sc_hd__clkbuf_2
*CAP
1 sel[1] 0.000320862
2 *433:A 0
3 *20:13 0.000320862
4 *3:13 *20:13 0.00015946
5 *16:9 *20:13 0.000234102
*RES
1 sel[1] *20:13 28.1092 
2 *20:13 *433:A 23 
*END

*D_NET *21 0.00137476
*CONN
*P sel[2] I
*I *434:A I *D sky130_fd_sc_hd__clkbuf_4
*CAP
1 sel[2] 0.000466742
2 *434:A 0.000466742
3 *434:A *130:6 0.000125416
4 *434:A *149:6 0.000315857
*RES
1 sel[2] *434:A 49.8279 
*END

*D_NET *22 0.0008106
*CONN
*P y[0] O
*I *443:X O *D sky130_fd_sc_hd__clkbuf_4
*CAP
1 y[0] 0.000397466
2 *443:X 0.000397466
3 y[0] *60:91 9.86551e-06
4 y[0] *60:108 5.80157e-06
5 y[0] *135:8 0
*RES
1 *443:X y[0] 48.2834 
*END

*D_NET *23 0.00129843
*CONN
*P y[1] O
*I *444:X O *D sky130_fd_sc_hd__clkbuf_4
*CAP
1 y[1] 0.000331616
2 *444:X 0.000299273
3 *23:12 0.000630889
4 *9:9 *23:12 3.66555e-05
5 *13:13 y[1] 0
*RES
1 *444:X *23:12 49.8011 
2 *23:12 y[1] 0.843733 
*END

*D_NET *24 0.00193154
*CONN
*P y[2] O
*I *445:X O *D sky130_fd_sc_hd__clkbuf_4
*CAP
1 y[2] 0.00050205
2 *445:X 0.000268324
3 *24:8 0.000770374
4 *24:8 *358:A2 2.33782e-05
5 *24:8 *131:6 0.000367408
*RES
1 *445:X *24:8 42.4329 
2 *24:8 y[2] 10.8129 
*END

*D_NET *25 0.00112349
*CONN
*P y[3] O
*I *446:X O *D sky130_fd_sc_hd__clkbuf_4
*CAP
1 y[3] 0.000561745
2 *446:X 0.000561745
*RES
1 *446:X y[3] 49.9107 
*END

*D_NET *26 0.00109078
*CONN
*P y[4] O
*I *447:X O *D sky130_fd_sc_hd__clkbuf_4
*CAP
1 y[4] 2.12208e-05
2 *447:X 0.00051538
3 *26:16 0.0005366
4 *26:16 *133:6 1.75792e-05
*RES
1 *447:X *26:16 49.7346 
2 *26:16 y[4] 0.776786 
*END

*D_NET *27 0.00079625
*CONN
*P y[5] O
*I *448:X O *D sky130_fd_sc_hd__clkbuf_4
*CAP
1 y[5] 0.000298878
2 *448:X 0.000298878
3 y[5] *127:20 7.15928e-05
4 y[5] *146:14 0.000126901
*RES
1 *448:X y[5] 48.5734 
*END

*D_NET *28 0.00167876
*CONN
*P y[6] O
*I *449:X O *D sky130_fd_sc_hd__clkbuf_4
*CAP
1 y[6] 0.000298433
2 *449:X 0.000333732
3 *28:8 0.000632165
4 *15:9 *28:8 0.000414431
*RES
1 *449:X *28:8 48.1811 
2 *28:8 y[6] 9.02667 
*END

*D_NET *29 0.00073909
*CONN
*P y[7] O
*I *450:X O *D sky130_fd_sc_hd__buf_2
*CAP
1 y[7] 0.000361825
2 *450:X 0.000361825
3 y[7] *60:80 6.10551e-06
4 y[7] *142:10 9.33529e-06
5 *4:15 y[7] 0
*RES
1 *450:X y[7] 47.2507 
*END

*D_NET *30 0.000478838
*CONN
*I *396:B2 I *D sky130_fd_sc_hd__o22a_1
*I *395:Y O *D sky130_fd_sc_hd__a21oi_1
*CAP
1 *396:B2 9.15999e-05
2 *395:Y 9.15999e-05
3 *396:B2 *395:A1 5.11429e-05
4 *396:B2 *395:A2 6.816e-06
5 *396:B2 *396:B1 9.64943e-05
6 *396:B2 *31:14 5.56356e-05
7 *396:B2 *128:35 7.42912e-05
8 *396:B2 *146:22 1.1258e-05
*RES
1 *395:Y *396:B2 49.045 
*END

*D_NET *31 0.000819456
*CONN
*I *397:C1 I *D sky130_fd_sc_hd__a311o_1
*I *396:X O *D sky130_fd_sc_hd__o22a_1
*CAP
1 *397:C1 0
2 *396:X 0.00025178
3 *31:14 0.00025178
4 *31:14 *395:B1 0.000150171
5 *31:14 *57:43 5.05491e-05
6 *31:14 *114:12 2.24366e-06
7 *31:14 *128:35 5.72975e-05
8 *396:B2 *31:14 5.56356e-05
*RES
1 *396:X *31:14 42.7021 
2 *31:14 *397:C1 38 
*END

*D_NET *32 0.00182421
*CONN
*I *398:B1 I *D sky130_fd_sc_hd__a31o_1
*I *397:X O *D sky130_fd_sc_hd__a311o_1
*CAP
1 *398:B1 0
2 *397:X 0.000111917
3 *32:18 0.000473643
4 *32:8 0.00058556
5 *32:8 *397:A3 9.5904e-05
6 *32:8 *117:50 0
7 *32:18 *399:A 0
8 *32:18 *406:A2 0.000120238
9 *32:18 *33:6 1.59094e-05
10 *32:18 *38:43 0
11 *32:18 *40:10 0.000267847
12 *32:18 *62:61 1.12863e-05
13 *32:18 *104:26 8.62783e-05
14 *32:18 *117:31 5.56279e-05
15 *32:18 *119:10 0
16 *32:18 *119:29 0
*RES
1 *397:X *32:8 40.61 
2 *32:8 *32:18 39.6943 
3 *32:18 *398:B1 38 
*END

*D_NET *33 0.00152856
*CONN
*I *405:A2 I *D sky130_fd_sc_hd__a211o_1
*I *406:A2 I *D sky130_fd_sc_hd__a21o_1
*I *399:X O *D sky130_fd_sc_hd__and2_1
*CAP
1 *405:A2 0
2 *406:A2 0.000277714
3 *399:X 3.88433e-05
4 *33:25 0.000142296
5 *33:6 0.000458853
6 *406:A2 *117:31 2.93335e-05
7 *33:25 *399:A 4.85995e-05
8 *33:25 *405:A1 6.48843e-05
9 *33:25 *104:39 1.01436e-05
10 *33:25 *116:29 6.44894e-05
11 *33:25 *117:50 0.000257258
12 *32:18 *406:A2 0.000120238
13 *32:18 *33:6 1.59094e-05
*RES
1 *399:X *33:6 23.6214 
2 *33:6 *406:A2 28.2821 
3 *33:6 *33:25 34.0807 
4 *33:25 *405:A2 23 
*END

*D_NET *34 0.000487803
*CONN
*I *401:B I *D sky130_fd_sc_hd__xnor2_1
*I *400:Y O *D sky130_fd_sc_hd__a21oi_1
*CAP
1 *401:B 2.32701e-05
2 *400:Y 7.10595e-05
3 *34:8 9.43296e-05
4 *401:B *128:31 5.3304e-05
5 *401:B *129:21 5.3304e-05
6 *34:8 *400:A2 1.22217e-05
7 *34:8 *114:35 0.00013807
8 *34:8 *128:22 4.22436e-05
*RES
1 *400:Y *34:8 39.9057 
2 *34:8 *401:B 38.6214 
*END

*D_NET *35 0.00201848
*CONN
*I *402:A I *D sky130_fd_sc_hd__or2b_1
*I *403:B_N I *D sky130_fd_sc_hd__or2b_1
*I *401:Y O *D sky130_fd_sc_hd__xnor2_1
*CAP
1 *402:A 0.00030279
2 *403:B_N 9.76389e-05
3 *401:Y 0.000106698
4 *35:12 0.000422312
5 *35:8 0.000128581
6 *402:A *402:B_N 6.39873e-05
7 *402:A *403:A 9.79925e-05
8 *402:A *37:8 0.000146984
9 *403:B_N *402:B_N 5.50106e-05
10 *35:8 *64:51 0.000299308
11 *35:8 *129:34 0.000297179
*RES
1 *401:Y *35:8 42.0186 
2 *35:8 *35:12 15.4971 
3 *35:12 *403:B_N 25.4236 
4 *35:12 *402:A 28.8829 
*END

*D_NET *36 0.00148717
*CONN
*I *419:A1 I *D sky130_fd_sc_hd__a311o_1
*I *418:A1 I *D sky130_fd_sc_hd__a21oi_1
*I *404:A I *D sky130_fd_sc_hd__nand2_1
*I *402:X O *D sky130_fd_sc_hd__or2b_1
*CAP
1 *419:A1 8.08018e-05
2 *418:A1 0.0001356
3 *404:A 3.33406e-05
4 *402:X 0.000110271
5 *36:21 0.000388224
6 *36:6 0.000315434
7 *404:A *73:30 3.7681e-05
8 *418:A1 *419:A3 9.92279e-05
9 *418:A1 *50:18 4.72245e-05
10 *419:A1 *419:A3 9.11801e-05
11 *419:A1 *133:24 4.00259e-06
12 *36:6 *73:30 0.000112369
13 *36:21 *73:30 3.18142e-05
*RES
1 *402:X *36:6 24.5743 
2 *36:6 *404:A 23.8493 
3 *36:6 *36:21 32.2993 
4 *36:21 *418:A1 25.0507 
5 *36:21 *419:A1 24.595 
*END

*D_NET *37 0.000695882
*CONN
*I *404:B I *D sky130_fd_sc_hd__nand2_1
*I *403:X O *D sky130_fd_sc_hd__or2b_1
*CAP
1 *404:B 0
2 *403:X 0.000172904
3 *37:8 0.000172904
4 *37:8 *402:B_N 5.71047e-05
5 *37:8 *73:30 0.000145986
6 *402:A *37:8 0.000146984
*RES
1 *403:X *37:8 27.4536 
2 *37:8 *404:B 23 
*END

*D_NET *38 0.00498621
*CONN
*I *405:B1 I *D sky130_fd_sc_hd__a211o_1
*I *407:A I *D sky130_fd_sc_hd__nand2_1
*I *404:Y O *D sky130_fd_sc_hd__nand2_1
*CAP
1 *405:B1 0
2 *407:A 0
3 *404:Y 0.00142105
4 *38:43 0.000356471
5 *38:22 0.000670835
6 *38:12 0.00173541
7 *38:12 *420:A2 0
8 *38:12 *50:12 3.32167e-05
9 *38:22 *395:B1 0.000150409
10 *38:22 *39:6 6.17437e-06
11 *38:22 *39:21 0.00021539
12 *38:22 *73:43 1.12349e-05
13 *38:43 *393:A 5.3304e-05
14 *38:43 *399:A 5.86204e-05
15 *38:43 *39:6 2.69859e-05
16 *38:43 *62:51 1.00084e-05
17 *38:43 *62:61 0
18 *38:43 *104:33 3.0848e-05
19 *38:43 *112:25 2.4306e-05
20 *38:43 *117:50 0.000181949
21 *32:18 *38:43 0
*RES
1 *404:Y *38:12 49.4856 
2 *38:12 *38:22 30.0118 
3 *38:22 *407:A 23 
4 *38:22 *38:43 36.7943 
5 *38:43 *405:B1 23 
*END

*D_NET *39 0.00511025
*CONN
*I *419:A2 I *D sky130_fd_sc_hd__a311o_1
*I *418:A2 I *D sky130_fd_sc_hd__a21oi_1
*I *412:A2 I *D sky130_fd_sc_hd__a31o_1
*I *405:X O *D sky130_fd_sc_hd__a211o_1
*CAP
1 *419:A2 0
2 *418:A2 0
3 *412:A2 0
4 *405:X 0.000127907
5 *39:44 0.000430477
6 *39:21 0.00176471
7 *39:12 0.000203919
8 *39:6 0.00166606
9 *39:6 *117:50 3.7122e-06
10 *39:12 *397:A3 0
11 *39:12 *412:A1 1.13812e-05
12 *39:12 *40:10 3.3123e-05
13 *39:12 *41:8 0.000139882
14 *39:12 *104:39 0
15 *39:12 *126:12 6.51997e-06
16 *39:21 *408:A1 2.64616e-05
17 *39:21 *408:A2 2.93845e-05
18 *39:21 *42:10 7.30979e-06
19 *39:21 *50:18 9.93085e-06
20 *39:21 *73:43 0.000158872
21 *39:44 *419:A3 2.0859e-05
22 *39:44 *419:C1 7.90549e-05
23 *39:44 *50:18 3.90693e-05
24 *39:44 *73:12 3.56604e-05
25 *39:44 *132:72 7.02054e-06
26 *39:44 *133:24 2.64616e-05
27 *39:44 *133:45 3.39192e-05
28 *38:22 *39:6 6.17437e-06
29 *38:22 *39:21 0.00021539
30 *38:43 *39:6 2.69859e-05
*RES
1 *405:X *39:6 24.5743 
2 *39:6 *39:12 33.6664 
3 *39:12 *412:A2 23 
4 *39:6 *39:21 17.6693 
5 *39:21 *418:A2 23 
6 *39:21 *39:44 37.3018 
7 *39:44 *419:A2 23 
*END

*D_NET *40 0.00101343
*CONN
*I *407:B I *D sky130_fd_sc_hd__nand2_1
*I *406:X O *D sky130_fd_sc_hd__a21o_1
*CAP
1 *407:B 0
2 *406:X 0.000286873
3 *40:10 0.000286873
4 *40:10 *117:50 0.000138718
5 *32:18 *40:10 0.000267847
6 *39:12 *40:10 3.3123e-05
*RES
1 *406:X *40:10 42.9093 
2 *40:10 *407:B 38 
*END

*D_NET *41 0.00030797
*CONN
*I *412:A3 I *D sky130_fd_sc_hd__a31o_1
*I *407:Y O *D sky130_fd_sc_hd__nand2_1
*CAP
1 *412:A3 0
2 *407:Y 8.40437e-05
3 *41:8 8.40437e-05
4 *39:12 *41:8 0.000139882
*RES
1 *407:Y *41:8 39.9057 
2 *41:8 *412:A3 38 
*END

*D_NET *42 0.000803305
*CONN
*I *409:B2 I *D sky130_fd_sc_hd__o22a_1
*I *408:Y O *D sky130_fd_sc_hd__a21oi_1
*CAP
1 *409:B2 4.36834e-05
2 *408:Y 0.000168499
3 *42:10 0.000212182
4 *409:B2 *409:A2 5.3304e-05
5 *409:B2 *44:16 4.55156e-05
6 *42:10 *73:43 7.53384e-06
7 *42:10 *139:12 0.000132638
8 *42:10 *143:10 0.000132638
9 *39:21 *42:10 7.30979e-06
*RES
1 *408:Y *42:10 41.0036 
2 *42:10 *409:B2 39.1186 
*END

*D_NET *43 0.000275301
*CONN
*I *411:B1 I *D sky130_fd_sc_hd__a311o_1
*I *409:X O *D sky130_fd_sc_hd__o22a_1
*CAP
1 *411:B1 4.84034e-05
2 *409:X 4.84034e-05
3 *411:B1 *409:A2 9.79925e-05
4 *411:B1 *411:A1 1.61385e-05
5 *411:B1 *411:A2 2.35413e-05
6 *411:B1 *44:16 4.08219e-05
*RES
1 *409:X *411:B1 47.595 
*END

*D_NET *44 0.00126149
*CONN
*I *411:C1 I *D sky130_fd_sc_hd__a311o_1
*I *410:Y O *D sky130_fd_sc_hd__nor2_1
*CAP
1 *411:C1 0
2 *410:Y 0.000266082
3 *44:16 0.000266082
4 *44:16 *409:A1 7.73461e-05
5 *44:16 *409:A2 5.77585e-05
6 *44:16 *410:A 0
7 *44:16 *411:A1 9.9942e-05
8 *44:16 *56:26 6.05043e-05
9 *44:16 *60:14 1.59094e-05
10 *44:16 *147:29 0.000152041
11 *44:16 *147:31 0.000179485
12 *409:B2 *44:16 4.55156e-05
13 *411:B1 *44:16 4.08219e-05
*RES
1 *410:Y *44:16 30.8714 
2 *44:16 *411:C1 23 
*END

*D_NET *45 0.00104438
*CONN
*I *412:B1 I *D sky130_fd_sc_hd__a31o_1
*I *411:X O *D sky130_fd_sc_hd__a311o_1
*CAP
1 *412:B1 0
2 *411:X 0.00027208
3 *45:8 0.00027208
4 *45:8 *378:A2 5.79559e-05
5 *45:8 *378:B1 5.56279e-05
6 *45:8 *56:26 1.8788e-05
7 *45:8 *56:37 0.000147726
8 *45:8 *107:10 0.000137361
9 *45:8 *126:8 5.5792e-05
10 *45:8 *145:34 2.69681e-05
*RES
1 *411:X *45:8 28.8829 
2 *45:8 *412:B1 23 
*END

*D_NET *46 0.000370899
*CONN
*I *417:A I *D sky130_fd_sc_hd__xnor2_1
*I *413:X O *D sky130_fd_sc_hd__o31a_1
*CAP
1 *417:A 0.000132246
2 *413:X 0.000132246
3 *417:A *56:20 1.35999e-05
4 *417:A *128:14 9.28065e-05
*RES
1 *413:X *417:A 49.0036 
*END

*D_NET *47 0.00182388
*CONN
*I *420:A2 I *D sky130_fd_sc_hd__o21ba_1
*I *416:A I *D sky130_fd_sc_hd__or2_1
*I *421:B I *D sky130_fd_sc_hd__nand2_1
*I *414:X O *D sky130_fd_sc_hd__and2_1
*CAP
1 *420:A2 0.000283865
2 *416:A 0
3 *421:B 7.70019e-05
4 *414:X 0.000182204
5 *47:12 7.70019e-05
6 *47:10 0.000466069
7 *420:A2 *48:18 9.15054e-05
8 *420:A2 *73:12 6.07611e-06
9 *420:A2 *133:24 0.000189733
10 *421:B *323:A 3.28357e-06
11 *421:B *416:B 5.14826e-05
12 *421:B *48:6 2.95423e-05
13 *421:B *49:14 5.58003e-05
14 *421:B *56:10 4.52979e-05
15 *47:10 *414:B 5.67058e-05
16 *47:10 *415:A 0
17 *47:10 *48:18 2.81231e-05
18 *47:10 *49:14 2.05503e-05
19 *47:10 *133:14 0.000134999
20 *47:10 *133:24 2.46399e-05
21 *38:12 *420:A2 0
*RES
1 *414:X *47:10 41.2314 
2 *47:10 *47:12 15 
3 *47:12 *421:B 25.0714 
4 *47:12 *416:A 23 
5 *47:10 *420:A2 43.4271 
*END

*D_NET *48 0.00280819
*CONN
*I *416:B I *D sky130_fd_sc_hd__or2_1
*I *422:B1 I *D sky130_fd_sc_hd__o221a_1
*I *415:Y O *D sky130_fd_sc_hd__nor2_1
*CAP
1 *416:B 0.000323583
2 *422:B1 0
3 *415:Y 7.91418e-05
4 *48:18 0.000312282
5 *48:6 0.000715007
6 *416:B *323:A 0.000220825
7 *416:B *56:10 0.000200329
8 *416:B *128:14 0.00016861
9 *48:6 *415:A 7.49745e-06
10 *48:6 *56:10 2.3667e-05
11 *48:6 *56:20 4.2104e-05
12 *48:6 *128:14 0.000275159
13 *48:18 *394:B 6.89431e-05
14 *48:18 *415:A 0
15 *48:18 *422:B2 1.1258e-05
16 *48:18 *422:C1 9.44734e-05
17 *48:18 *49:14 2.05503e-05
18 *48:18 *54:8 4.41085e-05
19 *420:A2 *48:18 9.15054e-05
20 *421:B *416:B 5.14826e-05
21 *421:B *48:6 2.95423e-05
22 *47:10 *48:18 2.81231e-05
*RES
1 *415:Y *48:6 26.0036 
2 *48:6 *48:18 36.5871 
3 *48:18 *422:B1 23 
4 *48:6 *416:B 31.1614 
*END

*D_NET *49 0.00153928
*CONN
*I *417:B I *D sky130_fd_sc_hd__xnor2_1
*I *416:X O *D sky130_fd_sc_hd__or2_1
*CAP
1 *417:B 9.01978e-05
2 *416:X 0.000492584
3 *49:14 0.000582782
4 *417:B *56:20 0.000106486
5 *417:B *128:14 0.000106486
6 *417:B *130:12 1.05441e-05
7 *49:14 *56:10 5.3304e-05
8 *421:B *49:14 5.58003e-05
9 *47:10 *49:14 2.05503e-05
10 *48:18 *49:14 2.05503e-05
*RES
1 *416:X *49:14 47.6854 
2 *49:14 *417:B 48.8689 
*END

*D_NET *50 0.00229717
*CONN
*I *419:A3 I *D sky130_fd_sc_hd__a311o_1
*I *418:B1 I *D sky130_fd_sc_hd__a21oi_1
*I *417:Y O *D sky130_fd_sc_hd__xnor2_1
*CAP
1 *419:A3 8.96218e-05
2 *418:B1 0
3 *417:Y 0.000551408
4 *50:18 0.000132941
5 *50:12 0.000594727
6 *419:A3 *419:C1 0.00011738
7 *419:A3 *133:24 0.000104731
8 *50:12 *56:20 0.000354696
9 *50:12 *73:12 0
10 *50:18 *419:C1 1.09618e-05
11 *418:A1 *419:A3 9.92279e-05
12 *418:A1 *50:18 4.72245e-05
13 *419:A1 *419:A3 9.11801e-05
14 *38:12 *50:12 3.32167e-05
15 *39:21 *50:18 9.93085e-06
16 *39:44 *419:A3 2.0859e-05
17 *39:44 *50:18 3.90693e-05
*RES
1 *417:Y *50:12 47.2593 
2 *50:12 *50:18 16.595 
3 *50:18 *418:B1 23 
4 *50:18 *419:A3 26.9046 
*END

*D_NET *51 0.00226288
*CONN
*I *423:A1 I *D sky130_fd_sc_hd__o21ai_1
*I *418:Y O *D sky130_fd_sc_hd__a21oi_1
*CAP
1 *423:A1 0
2 *418:Y 0.000573954
3 *51:22 0.000267391
4 *51:12 0.000841345
5 *51:12 *56:20 0
6 *51:12 *132:72 1.05658e-05
7 *51:22 *52:6 0.000261559
8 *51:22 *57:79 2.26406e-05
9 *51:22 *133:24 1.24376e-05
10 *4:15 *51:22 0.000272991
*RES
1 *418:Y *51:12 47.3216 
2 *51:12 *51:22 29.6804 
3 *51:22 *423:A1 23 
*END

*D_NET *52 0.00109407
*CONN
*I *423:A2 I *D sky130_fd_sc_hd__o21ai_1
*I *419:X O *D sky130_fd_sc_hd__a311o_1
*CAP
1 *423:A2 0
2 *419:X 0.00031086
3 *52:6 0.00031086
4 *52:6 *133:24 5.10686e-05
5 *52:6 *134:8 0.000102389
6 *52:6 *142:10 5.73309e-05
7 *51:22 *52:6 0.000261559
*RES
1 *419:X *52:6 29.815 
2 *52:6 *423:A2 23 
*END

*D_NET *53 0.000594934
*CONN
*I *422:B2 I *D sky130_fd_sc_hd__o221a_1
*I *420:X O *D sky130_fd_sc_hd__o21ba_1
*CAP
1 *422:B2 6.25045e-05
2 *420:X 0.000151807
3 *53:10 0.000214312
4 *422:B2 *394:B 2.19403e-05
5 *422:B2 *60:50 2.48795e-05
6 *53:10 *123:12 2.0346e-05
7 *53:10 *133:24 8.78864e-05
8 *48:18 *422:B2 1.1258e-05
*RES
1 *420:X *53:10 40.2993 
2 *53:10 *422:B2 39.4707 
*END

*D_NET *54 0.000681196
*CONN
*I *422:C1 I *D sky130_fd_sc_hd__o221a_1
*I *421:Y O *D sky130_fd_sc_hd__nand2_1
*CAP
1 *422:C1 9.95246e-05
2 *421:Y 0.000121846
3 *54:8 0.000221371
4 *422:C1 *394:B 9.98726e-05
5 *48:18 *422:C1 9.44734e-05
6 *48:18 *54:8 4.41085e-05
*RES
1 *421:Y *54:8 40.2579 
2 *54:8 *422:C1 40.5479 
*END

*D_NET *55 0.00117386
*CONN
*I *423:B1 I *D sky130_fd_sc_hd__o21ai_1
*I *422:X O *D sky130_fd_sc_hd__o221a_1
*CAP
1 *423:B1 0
2 *422:X 0.000359884
3 *55:10 0.000359884
4 *55:10 *60:50 0.00045409
5 *55:10 *132:27 0
6 *4:15 *55:10 0
*RES
1 *422:X *55:10 45.1257 
2 *55:10 *423:B1 38 
*END

*D_NET *56 0.0188878
*CONN
*I *421:A I *D sky130_fd_sc_hd__nand2_1
*I *345:A3 I *D sky130_fd_sc_hd__a31o_1
*I *329:A3 I *D sky130_fd_sc_hd__a311o_1
*I *324:B I *D sky130_fd_sc_hd__and2_2
*I *357:A3 I *D sky130_fd_sc_hd__a311o_1
*I *367:A3 I *D sky130_fd_sc_hd__a31o_1
*I *381:A3 I *D sky130_fd_sc_hd__a311o_1
*I *397:A3 I *D sky130_fd_sc_hd__a311o_1
*I *411:A3 I *D sky130_fd_sc_hd__a311o_1
*I *323:Y O *D sky130_fd_sc_hd__nor2b_4
*CAP
1 *421:A 2.22619e-05
2 *345:A3 0.00051668
3 *329:A3 9.93142e-05
4 *324:B 1.56031e-05
5 *357:A3 0.00025857
6 *367:A3 0.000340384
7 *381:A3 0
8 *397:A3 0.00032671
9 *411:A3 0
10 *323:Y 0.000395975
11 *56:110 0.00117072
12 *56:102 0.000862469
13 *56:83 0.000533749
14 *56:57 0.00123962
15 *56:48 0.000697979
16 *56:37 0.000630489
17 *56:26 0.000845661
18 *56:20 0.00168626
19 *56:10 0.00129491
20 *324:B *57:20 5.56279e-05
21 *324:B *131:27 5.56279e-05
22 *329:A3 *328:A 4.36379e-05
23 *329:A3 *329:B1 7.39654e-05
24 *329:A3 *61:12 0.000221126
25 *329:A3 *123:47 1.42828e-05
26 *345:A3 *329:B1 4.96811e-06
27 *345:A3 *345:A2 5.56356e-05
28 *345:A3 *71:10 0
29 *345:A3 *134:42 0
30 *345:A3 *134:53 2.93431e-05
31 *345:A3 *147:10 0
32 *345:A3 *149:58 5.19959e-05
33 *345:A3 *149:75 0.000134767
34 *357:A3 *357:A2 3.86731e-05
35 *357:A3 *57:136 8.9728e-05
36 *357:A3 *62:81 3.63315e-05
37 *357:A3 *83:35 0.000367081
38 *357:A3 *98:10 3.13952e-05
39 *357:A3 *126:74 0
40 *357:A3 *138:8 0.000202708
41 *357:A3 *144:47 1.08928e-05
42 *367:A3 *367:A1 9.8971e-06
43 *367:A3 *81:29 6.36631e-05
44 *367:A3 *99:10 4.96675e-06
45 *367:A3 *126:48 0.000172775
46 *367:A3 *144:47 9.67842e-05
47 *397:A3 *114:12 0.000697262
48 *397:A3 *126:12 8.88885e-05
49 *56:20 *415:A 1.51028e-05
50 *56:20 *128:14 1.42187e-05
51 *56:20 *132:72 0
52 *56:20 *149:10 0
53 *56:26 *409:A2 0.000293709
54 *56:26 *411:A2 0.0002108
55 *56:26 *60:14 5.52998e-05
56 *56:37 *378:A2 5.56279e-05
57 *56:37 *378:B1 5.56279e-05
58 *56:37 *411:A1 5.47983e-06
59 *56:37 *411:A2 1.12349e-05
60 *56:37 *145:34 9.65021e-05
61 *56:37 *145:47 4.21048e-05
62 *56:37 *145:58 0.000132064
63 *56:48 *114:12 0.000165547
64 *56:48 *126:12 0.000156295
65 *56:57 *62:81 8.47473e-05
66 *56:57 *90:8 0.000113235
67 *56:57 *114:12 0.000481922
68 *56:57 *126:12 0.000360554
69 *56:57 *126:23 0.000145489
70 *56:57 *126:36 0.000166387
71 *56:57 *126:74 0
72 *56:57 *144:47 6.68587e-05
73 *56:83 *57:20 4.2812e-06
74 *56:83 *60:14 6.38433e-05
75 *56:83 *60:26 4.35409e-05
76 *56:83 *132:72 0
77 *56:102 *57:8 5.56279e-05
78 *56:102 *57:20 3.03686e-05
79 *56:102 *57:122 1.02387e-05
80 *56:102 *60:26 1.33874e-05
81 *56:102 *63:8 7.56797e-05
82 *56:102 *131:27 0.000230054
83 *56:110 *332:A 5.56356e-05
84 *56:110 *57:67 0.000276075
85 *56:110 *57:92 0.000124722
86 *56:110 *64:6 0.000144501
87 *56:110 *123:27 0.000100298
88 *56:110 *123:38 1.35721e-05
89 *56:110 *149:58 0.000165394
90 *416:B *56:10 0.000200329
91 *417:A *56:20 1.35999e-05
92 *417:B *56:20 0.000106486
93 *421:B *56:10 4.52979e-05
94 *32:8 *397:A3 9.5904e-05
95 *39:12 *397:A3 0
96 *44:16 *56:26 6.05043e-05
97 *45:8 *56:26 1.8788e-05
98 *45:8 *56:37 0.000147726
99 *48:6 *56:10 2.3667e-05
100 *48:6 *56:20 4.2104e-05
101 *49:14 *56:10 5.3304e-05
102 *50:12 *56:20 0.000354696
103 *51:12 *56:20 0
*RES
1 *323:Y *56:10 29.0279 
2 *56:10 *56:20 30.6807 
3 *56:20 *56:26 23.9693 
4 *56:26 *411:A3 23 
5 *56:26 *56:37 20.8829 
6 *56:37 *397:A3 47.3007 
7 *56:37 *56:48 2.25786 
8 *56:48 *381:A3 38 
9 *56:48 *56:57 16.3436 
10 *56:57 *367:A3 42.8057 
11 *56:57 *357:A3 46.12 
12 *56:20 *56:83 3.66643 
13 *56:83 *324:B 38.6214 
14 *56:83 *56:102 36.3386 
15 *56:102 *56:110 42.0143 
16 *56:110 *329:A3 41.6664 
17 *56:110 *345:A3 47.57 
18 *56:10 *421:A 23.4971 
*END

*D_NET *57 0.0197375
*CONN
*I *355:B1 I *D sky130_fd_sc_hd__o22a_1
*I *369:B1 I *D sky130_fd_sc_hd__o22a_1
*I *343:B1 I *D sky130_fd_sc_hd__o22a_1
*I *326:B1 I *D sky130_fd_sc_hd__o22a_1
*I *420:B1_N I *D sky130_fd_sc_hd__o21ba_1
*I *409:B1 I *D sky130_fd_sc_hd__o22a_1
*I *396:B1 I *D sky130_fd_sc_hd__o22a_1
*I *379:B1 I *D sky130_fd_sc_hd__o22a_1
*I *324:X O *D sky130_fd_sc_hd__and2_2
*CAP
1 *355:B1 1.41966e-05
2 *369:B1 0
3 *343:B1 0.00034413
4 *326:B1 0
5 *420:B1_N 0
6 *409:B1 0
7 *396:B1 3.34435e-05
8 *379:B1 2.40037e-05
9 *324:X 4.36424e-05
10 *57:136 0.000487941
11 *57:122 0.00181739
12 *57:103 0.00141136
13 *57:92 0.00130899
14 *57:79 0.000487865
15 *57:67 0.00101893
16 *57:63 0.00170207
17 *57:56 8.34329e-05
18 *57:43 0.000975981
19 *57:22 0.0010872
20 *57:20 0.000571345
21 *57:8 0.000508416
22 *343:B1 *343:A2 2.00658e-05