*SPEF "ieee 1481-1999"
*DESIGN "alu"
*DATE "11:11:11 Fri 11 11, 1111"
*VENDOR "OpenRCX"
*PROGRAM "Parallel Extraction"
*VERSION "1.0"
*DESIGN_FLOW "NAME_SCOPE LOCAL" "PIN_CAP NONE"
*DIVIDER /
*DELIMITER :
*BUS_DELIMITER []
*T_UNIT 1 NS
*C_UNIT 1 PF
*R_UNIT 1 OHM
*L_UNIT 1 HENRY

*NAME_MAP
*3 a[0]
*4 a[1]
*5 a[2]
*6 a[3]
*7 a[4]
*8 a[5]
*9 a[6]
*10 a[7]
*11 b[0]
*12 b[1]
*13 b[2]
*14 b[3]
*15 b[4]
*16 b[5]
*17 b[6]
*18 b[7]
*19 sel[0]
*20 sel[1]
*21 sel[2]
*22 y[0]
*23 y[1]
*24 y[2]
*25 y[3]
*26 y[4]
*27 y[5]
*28 y[6]
*29 y[7]
*30 _000_
*31 _001_
*32 _002_
*33 _003_
*34 _004_
*35 _005_
*36 _006_
*37 _007_
*38 _008_
*39 _009_
*40 _010_
*41 _011_
*42 _012_
*43 _013_
*44 _014_
*45 _015_
*46 _016_
*47 _017_
*48 _018_
*49 _019_
*50 _020_
*51 _021_
*52 _022_
*53 _023_
*54 _024_
*55 _025_
*56 _026_
*57 _027_
*58 _028_
*59 _029_
*60 _030_
*61 _031_
*62 _032_
*63 _033_
*64 _034_
*65 _035_
*66 _036_
*67 _037_
*68 _038_
*69 _039_
*70 _040_
*71 _041_
*72 _042_
*73 _043_
*74 _044_
*75 _045_
*76 _046_
*77 _047_
*78 _048_
*79 _049_
*80 _050_
*81 _051_
*82 _052_
*83 _053_
*84 _054_
*85 _055_
*86 _056_
*87 _057_
*88 _058_
*89 _059_
*90 _060_
*91 _061_
*92 _062_
*93 _063_
*94 _064_
*95 _065_
*96 _066_
*97 _067_
*98 _068_
*99 _069_
*100 _070_
*101 _071_
*102 _072_
*103 _073_
*104 _074_
*105 _075_
*106 _076_
*107 _077_
*108 _078_
*109 _079_
*110 _080_
*111 _081_
*112 _082_
*113 _083_
*114 _084_
*115 _085_
*116 _086_
*117 _087_
*118 _088_
*119 _089_
*120 _090_
*121 _091_
*122 _092_
*123 net1
*124 net10
*125 net11
*126 net12
*127 net13
*128 net14
*129 net15
*130 net16
*131 net17
*132 net18
*133 net19
*134 net2
*135 net20
*136 net21
*137 net22
*138 net23
*139 net24
*140 net25
*141 net26
*142 net27
*143 net3
*144 net4
*145 net5
*146 net6
*147 net7
*148 net8
*149 net9
*150 FILLER_0_0_14
*151 FILLER_0_0_26
*152 FILLER_0_0_35
*153 FILLER_0_0_43
*154 FILLER_0_0_53
*155 FILLER_0_0_57
*156 FILLER_0_0_65
*157 FILLER_0_0_69
*158 FILLER_0_0_78
*159 FILLER_0_0_85
*160 FILLER_0_10_15
*161 FILLER_0_10_23
*162 FILLER_0_10_27
*163 FILLER_0_10_29
*164 FILLER_0_10_3
*165 FILLER_0_10_41
*166 FILLER_0_10_53
*167 FILLER_0_10_61
*168 FILLER_0_10_72
*169 FILLER_0_10_85
*170 FILLER_0_10_89
*171 FILLER_0_11_18
*172 FILLER_0_11_26
*173 FILLER_0_11_3
*174 FILLER_0_11_32
*175 FILLER_0_11_44
*176 FILLER_0_11_57
*177 FILLER_0_11_65
*178 FILLER_0_11_75
*179 FILLER_0_11_83
*180 FILLER_0_11_9
*181 FILLER_0_12_12
*182 FILLER_0_12_54
*183 FILLER_0_12_66
*184 FILLER_0_12_7
*185 FILLER_0_12_76
*186 FILLER_0_12_88
*187 FILLER_0_13_14
*188 FILLER_0_13_25
*189 FILLER_0_13_45
*190 FILLER_0_13_70
*191 FILLER_0_13_85
*192 FILLER_0_14_13
*193 FILLER_0_14_21
*194 FILLER_0_14_27
*195 FILLER_0_14_29
*196 FILLER_0_14_37
*197 FILLER_0_14_50
*198 FILLER_0_14_57
*199 FILLER_0_14_74
*200 FILLER_0_14_89
*201 FILLER_0_1_21
*202 FILLER_0_1_3
*203 FILLER_0_1_55
*204 FILLER_0_1_57
*205 FILLER_0_1_65
*206 FILLER_0_1_7
*207 FILLER_0_1_77
*208 FILLER_0_2_17
*209 FILLER_0_2_25
*210 FILLER_0_2_40
*211 FILLER_0_2_52
*212 FILLER_0_2_64
*213 FILLER_0_2_7
*214 FILLER_0_2_72
*215 FILLER_0_2_82
*216 FILLER_0_2_85
*217 FILLER_0_2_89
*218 FILLER_0_3_11
*219 FILLER_0_3_25
*220 FILLER_0_3_3
*221 FILLER_0_3_37
*222 FILLER_0_3_49
*223 FILLER_0_3_66
*224 FILLER_0_4_16
*225 FILLER_0_4_29
*226 FILLER_0_4_3
*227 FILLER_0_4_41
*228 FILLER_0_4_51
*229 FILLER_0_4_59
*230 FILLER_0_4_74
*231 FILLER_0_4_89
*232 FILLER_0_5_20
*233 FILLER_0_5_31
*234 FILLER_0_5_37
*235 FILLER_0_5_55
*236 FILLER_0_5_60
*237 FILLER_0_5_66
*238 FILLER_0_5_7
*239 FILLER_0_6_26
*240 FILLER_0_6_44
*241 FILLER_0_6_52
*242 FILLER_0_6_68
*243 FILLER_0_6_81
*244 FILLER_0_6_89
*245 FILLER_0_7_16
*246 FILLER_0_7_24
*247 FILLER_0_7_32
*248 FILLER_0_7_36
*249 FILLER_0_7_48
*250 FILLER_0_7_57
*251 FILLER_0_7_63
*252 FILLER_0_7_68
*253 FILLER_0_7_80
*254 FILLER_0_8_3
*255 FILLER_0_8_44
*256 FILLER_0_8_49
*257 FILLER_0_8_57
*258 FILLER_0_8_72
*259 FILLER_0_8_83
*260 FILLER_0_8_85
*261 FILLER_0_8_89
*262 FILLER_0_9_13
*263 FILLER_0_9_20
*264 FILLER_0_9_28
*265 FILLER_0_9_57
*266 FILLER_0_9_89
*267 FILLER_0_9_9
*268 PHY_0
*269 PHY_1
*270 PHY_10
*271 PHY_11
*272 PHY_12
*273 PHY_13
*274 PHY_14
*275 PHY_15
*276 PHY_16
*277 PHY_17
*278 PHY_18
*279 PHY_19
*280 PHY_2
*281 PHY_20
*282 PHY_21
*283 PHY_22
*284 PHY_23
*285 PHY_24
*286 PHY_25
*287 PHY_26
*288 PHY_27
*289 PHY_28
*290 PHY_29
*291 PHY_3
*292 PHY_4
*293 PHY_5
*294 PHY_6
*295 PHY_7
*296 PHY_8
*297 PHY_9
*298 TAP_30
*299 TAP_31
*300 TAP_32
*301 TAP_33
*302 TAP_34
*303 TAP_35
*304 TAP_36
*305 TAP_37
*306 TAP_38
*307 TAP_39
*308 TAP_40
*309 TAP_41
*310 TAP_42
*311 TAP_43
*312 TAP_44
*313 TAP_45
*314 TAP_46
*315 TAP_47
*316 TAP_48
*317 TAP_49
*318 TAP_50
*319 TAP_51
*320 TAP_52
*321 TAP_53
*322 TAP_54
*323 _093_
*324 _094_
*325 _095_
*326 _096_
*327 _097_
*328 _098_
*329 _099_
*330 _100_
*331 _101_
*332 _102_
*333 _103_
*334 _104_
*335 _105_
*336 _106_
*337 _107_
*338 _108_
*339 _109_
*340 _110_
*341 _111_
*342 _112_
*343 _113_
*344 _114_
*345 _115_
*346 _116_
*347 _117_
*348 _118_
*349 _119_
*350 _120_
*351 _121_
*352 _122_
*353 _123_
*354 _124_
*355 _125_
*356 _126_
*357 _127_
*358 _128_
*359 _129_
*360 _130_
*361 _131_
*362 _132_
*363 _133_
*364 _134_
*365 _135_
*366 _136_
*367 _137_
*368 _138_
*369 _139_
*370 _140_
*371 _141_
*372 _142_
*373 _143_
*374 _144_
*375 _145_
*376 _146_
*377 _147_
*378 _148_
*379 _149_
*380 _150_
*381 _151_
*382 _152_
*383 _153_
*384 _154_
*385 _155_
*386 _156_
*387 _157_
*388 _158_
*389 _159_
*390 _160_
*391 _161_
*392 _162_
*393 _163_
*394 _164_
*395 _165_
*396 _166_
*397 _167_
*398 _168_
*399 _169_
*400 _170_
*401 _171_
*402 _172_
*403 _173_
*404 _174_
*405 _175_
*406 _176_
*407 _177_
*408 _178_
*409 _179_
*410 _180_
*411 _181_
*412 _182_
*413 _183_
*414 _184_
*415 _185_
*416 _186_
*417 _187_
*418 _188_
*419 _189_
*420 _190_
*421 _191_
*422 _192_
*423 _193_
*424 input1
*425 input10
*426 input11
*427 input12
*428 input13
*429 input14
*430 input15
*431 input16
*432 input17
*433 input18
*434 input19
*435 input2
*436 input3
*437 input4
*438 input5
*439 input6
*440 input7
*441 input8
*442 input9
*443 output20
*444 output21
*445 output22
*446 output23
*447 output24
*448 output25
*449 output26
*450 output27

*PORTS
a[0] I
a[1] I
a[2] I
a[3] I
a[4] I
a[5] I
a[6] I
a[7] I
b[0] I
b[1] I
b[2] I
b[3] I
b[4] I
b[5] I
b[6] I
b[7] I
sel[0] I
sel[1] I
sel[2] I
y[0] O
y[1] O
y[2] O
y[3] O
y[4] O
y[5] O
y[6] O
y[7] O

*D_NET *3 0.0019764
*CONN
*P a[0] I
*I *424:A I *D sky130_fd_sc_hd__dlymetal6s2s_1
*CAP
1 a[0] 0.00086144
2 *424:A 0.00086144
3 *424:A *429:A 0
4 *424:A *433:A 0.000132474
5 *424:A *132:27 0.000121047
*RES
1 a[0] *424:A 18.6837 
*END

*D_NET *4 0.00124433
*CONN
*P a[1] I
*I *435:A I *D sky130_fd_sc_hd__clkbuf_2
*CAP
1 a[1] 0.000463254
2 *435:A 0.000463254
3 *435:A y[7] 0
4 *435:A *423:A1 0.000232944
5 *435:A *423:B1 0
6 *435:A *60:50 0
7 *435:A *132:27 8.48743e-05
*RES
1 a[1] *435:A 8.83677 
*END

*D_NET *5 0.000963368
*CONN
*P a[2] I
*I *436:A I *D sky130_fd_sc_hd__buf_2
*CAP
1 a[2] 0.000474166
2 *436:A 0.000474166
3 *436:A *400:A2 9.50342e-06
4 *436:A *447:A 5.53249e-06
5 *436:A *149:12 0
*RES
1 a[2] *436:A 13.275 
*END

*D_NET *6 0.000522973
*CONN
*P a[3] I
*I *437:A I *D sky130_fd_sc_hd__clkbuf_2
*CAP
1 a[3] 0.000261486
2 *437:A 0.000261486
3 *437:A *439:A 0
*RES
1 a[3] *437:A 6.73043 
*END

*D_NET *7 0.000440428
*CONN
*P a[4] I
*I *438:A I *D sky130_fd_sc_hd__buf_2
*CAP
1 a[4] 0.000220214
2 *438:A 0.000220214
3 *438:A *427:A 0
*RES
1 a[4] *438:A 6.38543 
*END

*D_NET *8 0.000888643
*CONN
*P a[5] I
*I *439:A I *D sky130_fd_sc_hd__clkbuf_2
*CAP
1 a[5] 0.000432268
2 *439:A 0.000432268
3 *439:A *127:20 2.41078e-05
4 *437:A *439:A 0
*RES
1 a[5] *439:A 5.54257 
*END

*D_NET *9 0.00157496
*CONN
*P a[6] I
*I *440:A I *D sky130_fd_sc_hd__clkbuf_2
*CAP
1 a[6] 0.000497853
2 *440:A 0.000497853
3 *440:A y[1] 3.51072e-05
4 *440:A *426:A 0.000544149
*RES
1 a[6] *440:A 14.37 
*END

*D_NET *10 0.00130661
*CONN
*P a[7] I
*I *441:A I *D sky130_fd_sc_hd__buf_1
*CAP
1 a[7] 0.000471822
2 *441:A 0.000471822
3 *441:A *414:A 2.16833e-05
4 *441:A *414:B 2.01885e-05
5 *441:A *128:14 1.61831e-05
6 *441:A *133:14 5.30673e-05
7 *441:A *148:20 0.000251842
*RES
1 a[7] *441:A 12.99 
*END

*D_NET *11 0.00137002
*CONN
*P b[0] I
*I *442:A I *D sky130_fd_sc_hd__clkbuf_2
*CAP
1 b[0] 0.000444988
2 *442:A 0.000444988
3 *442:A *430:A 0.000237249
4 *442:A *431:A 0.000242798
*RES
1 b[0] *442:A 12.0404 
*END

*D_NET *12 0.00103266
*CONN
*P b[1] I
*I *425:A I *D sky130_fd_sc_hd__dlymetal6s2s_1
*CAP
1 b[1] 0.00049186
2 *425:A 0.00049186
3 *425:A *124:14 4.89395e-05
*RES
1 b[1] *425:A 12.39 
*END

*D_NET *13 0.0017351
*CONN
*P b[2] I
*I *426:A I *D sky130_fd_sc_hd__buf_2
*CAP
1 b[2] 0.000495491
2 *426:A 0.000495491
3 *426:A y[1] 0
4 *426:A *343:B1 0.000137475
5 *426:A *125:12 6.24973e-05
6 *440:A *426:A 0.000544149
*RES
1 b[2] *426:A 14.0937 
*END

*D_NET *14 0.000645577
*CONN
*P b[3] I
*I *427:A I *D sky130_fd_sc_hd__clkbuf_2
*CAP
1 b[3] 0.000317079
2 *427:A 0.000317079
3 *427:A *384:A 1.14192e-05
4 *427:A *146:16 0
5 *438:A *427:A 0
*RES
1 b[3] *427:A 8.00543 
*END

*D_NET *15 0.00155703
*CONN
*P b[4] I
*I *428:A I *D sky130_fd_sc_hd__clkbuf_2
*CAP
1 b[4] 0.000516726
2 *428:A 0.000516726
3 *428:A y[6] 0.000379419
4 *428:A *449:A 0.000123961
5 *428:A *127:20 2.01934e-05
*RES
1 b[4] *428:A 15.06 
*END

*D_NET *16 0.0016773
*CONN
*P b[5] I
*I *429:A I *D sky130_fd_sc_hd__clkbuf_2
*CAP
1 b[5] 0.000738503
2 *429:A 0.000738503
3 *429:A *433:A 0.000200289
4 *424:A *429:A 0
*RES
1 b[5] *429:A 15.96 
*END

*D_NET *17 0.00153942
*CONN
*P b[6] I
*I *430:A I *D sky130_fd_sc_hd__clkbuf_2
*CAP
1 b[6] 0.000651084
2 *430:A 0.000651084
3 *442:A *430:A 0.000237249
*RES
1 b[6] *430:A 15.27 
*END

*D_NET *18 0.0014059
*CONN
*P b[7] I
*I *431:A I *D sky130_fd_sc_hd__buf_1
*CAP
1 b[7] 0.000493284
2 *431:A 0.000493284
3 *431:A *129:14 0.00014143
4 *431:A *149:12 3.51072e-05
5 *442:A *431:A 0.000242798
*RES
1 b[7] *431:A 13.725 
*END

*D_NET *19 0.00113145
*CONN
*P sel[0] I
*I *432:A I *D sky130_fd_sc_hd__clkbuf_2
*CAP
1 sel[0] 0.000522502
2 *432:A 0.000522502
3 *432:A *449:A 8.64421e-05
*RES
1 sel[0] *432:A 12.99 
*END

*D_NET *20 0.000881256
*CONN
*P sel[1] I
*I *433:A I *D sky130_fd_sc_hd__clkbuf_2
*CAP
1 sel[1] 0.000274246
2 *433:A 0.000274246
3 *424:A *433:A 0.000132474
4 *429:A *433:A 0.000200289
*RES
1 sel[1] *433:A 7.77697 
*END

*D_NET *21 0.00119206
*CONN
*P sel[2] I
*I *434:A I *D sky130_fd_sc_hd__clkbuf_4
*CAP
1 sel[2] 0.000399231
2 *434:A 0.000399231
3 *434:A *130:6 0.000115484
4 *434:A *149:12 0.000278117
*RES
1 sel[2] *434:A 12.165 
*END

*D_NET *22 0.000664248
*CONN
*P y[0] O
*I *443:X O *D sky130_fd_sc_hd__clkbuf_4
*CAP
1 y[0] 0.000324009
2 *443:X 0.000324009
3 y[0] *443:A 0
4 y[0] *60:91 9.58678e-06
5 y[0] *60:108 6.64292e-06
*RES
1 *443:X y[0] 5.71503 
*END

*D_NET *23 0.00107096
*CONN
*P y[1] O
*I *444:X O *D sky130_fd_sc_hd__clkbuf_4
*CAP
1 y[1] 0.000517928
2 *444:X 0.000517928
3 *426:A y[1] 0
4 *440:A y[1] 3.51072e-05
*RES
1 *444:X y[1] 7.42503 
*END

*D_NET *24 0.00167786
*CONN
*P y[2] O
*I *445:X O *D sky130_fd_sc_hd__clkbuf_4
*CAP
1 y[2] 0.000673188
2 *445:X 0.000673188
3 y[2] *358:A2 2.10905e-05
4 y[2] *131:18 0.000310388
*RES
1 *445:X y[2] 14.64 
*END

*D_NET *25 0.000991187
*CONN
*P y[3] O
*I *446:X O *D sky130_fd_sc_hd__clkbuf_4
*CAP
1 y[3] 0.000495593
2 *446:X 0.000495593
*RES
1 *446:X y[3] 12.225 
*END

*D_NET *26 0.00095279
*CONN
*P y[4] O
*I *447:X O *D sky130_fd_sc_hd__clkbuf_4
*CAP
1 y[4] 0.000467804
2 *447:X 0.000467804
3 y[4] *133:14 1.71824e-05
*RES
1 *447:X y[4] 12.66 
*END

*D_NET *27 0.000691737
*CONN
*P y[5] O
*I *448:X O *D sky130_fd_sc_hd__clkbuf_4
*CAP
1 y[5] 0.000261536
2 *448:X 0.000261536
3 y[5] *127:20 6.49948e-05
4 y[5] *146:16 0.000103671
*RES
1 *448:X y[5] 5.92503 
*END

*D_NET *28 0.00148376
*CONN
*P y[6] O
*I *449:X O *D sky130_fd_sc_hd__clkbuf_4
*CAP
1 y[6] 0.000552172
2 *449:X 0.000552172
3 *428:A y[6] 0.000379419
*RES
1 *449:X y[6] 12.1692 
*END

*D_NET *29 0.000606515
*CONN
*P y[7] O
*I *450:X O *D sky130_fd_sc_hd__buf_2
*CAP
1 y[7] 0.000295307
2 *450:X 0.000295307
3 y[7] *450:A 9.26907e-06
4 y[7] *60:80 6.63219e-06
5 *435:A y[7] 0
*RES
1 *450:X y[7] 4.9633 
*END

*D_NET *30 0.000402758
*CONN
*I *396:B2 I *D sky130_fd_sc_hd__o22a_1
*I *395:Y O *D sky130_fd_sc_hd__a21oi_1
*CAP
1 *396:B2 6.88821e-05
2 *395:Y 6.88821e-05
3 *396:B2 *395:A1 4.65906e-05
4 *396:B2 *395:A2 7.36976e-06
5 *396:B2 *396:B1 8.35068e-05
6 *396:B2 *397:C1 4.77757e-05
7 *396:B2 *128:35 6.75189e-05
8 *396:B2 *146:22 1.22325e-05
*RES
1 *395:Y *396:B2 5.405 
*END

*D_NET *31 0.000641567
*CONN
*I *397:C1 I *D sky130_fd_sc_hd__a311o_1
*I *396:X O *D sky130_fd_sc_hd__o22a_1
*CAP
1 *397:C1 0.000186679
2 *396:X 0.000186679
3 *397:C1 *395:B1 0.000126557
4 *397:C1 *396:B1 4.27316e-05
5 *397:C1 *114:12 2.56752e-06
6 *397:C1 *128:35 4.85763e-05
7 *396:B2 *397:C1 4.77757e-05
*RES
1 *396:X *397:C1 10.605 
*END

*D_NET *32 0.00150312
*CONN
*I *398:B1 I *D sky130_fd_sc_hd__a31o_1
*I *397:X O *D sky130_fd_sc_hd__a311o_1
*CAP
1 *398:B1 0.000460205
2 *397:X 0.000460205
3 *398:B1 *392:B1 0
4 *398:B1 *397:A3 8.95766e-05
5 *398:B1 *398:A1 9.09788e-06
6 *398:B1 *399:A 0
7 *398:B1 *405:B1 0
8 *398:B1 *405:C1 0
9 *398:B1 *406:A1 7.23533e-05
10 *398:B1 *406:A2 0.000115792
11 *398:B1 *406:B1 4.77719e-05
12 *398:B1 *407:B 0.00023248
13 *398:B1 *33:6 1.56428e-05
14 *398:B1 *119:10 0
*RES
1 *397:X *398:B1 20.11 
*END

*D_NET *33 0.00124472
*CONN
*I *405:A2 I *D sky130_fd_sc_hd__a211o_1
*I *406:A2 I *D sky130_fd_sc_hd__a21o_1
*I *399:X O *D sky130_fd_sc_hd__and2_1
*CAP
1 *405:A2 9.86446e-05
2 *406:A2 0.000226614
3 *399:X 2.75613e-05
4 *33:6 0.000352819
5 *405:A2 *382:A2 8.53113e-06
6 *405:A2 *399:A 4.71023e-05
7 *405:A2 *399:B 5.26765e-05
8 *405:A2 *405:A1 5.60226e-05
9 *405:A2 *405:C1 0.000216463
10 *406:A2 *406:B1 2.68464e-05
11 *398:B1 *406:A2 0.000115792
12 *398:B1 *33:6 1.56428e-05
*RES
1 *399:X *33:6 2.05 
2 *33:6 *406:A2 5.425 
3 *33:6 *405:A2 8.555 
*END

*D_NET *34 0.000379235
*CONN
*I *401:B I *D sky130_fd_sc_hd__xnor2_1
*I *400:Y O *D sky130_fd_sc_hd__a21oi_1
*CAP
1 *401:B 5.9326e-05
2 *400:Y 5.9326e-05
3 *401:B *400:A1 3.97438e-05
4 *401:B *400:A2 1.38207e-05
5 *401:B *400:B1 0.000113797
6 *401:B *128:31 4.66108e-05
7 *401:B *129:21 4.66108e-05
*RES
1 *400:Y *401:B 9.03 
*END

*D_NET *35 0.00159604
*CONN
*I *402:A I *D sky130_fd_sc_hd__or2b_1
*I *403:B_N I *D sky130_fd_sc_hd__or2b_1
*I *401:Y O *D sky130_fd_sc_hd__xnor2_1
*CAP
1 *402:A 0.000229088
2 *403:B_N 7.75123e-05
3 *401:Y 8.98847e-05
4 *35:12 0.000396485
5 *402:A *402:B_N 6.22255e-05
6 *402:A *403:A 8.41384e-05
7 *402:A *404:B 0.000123961
8 *403:B_N *402:B_N 4.82919e-05
9 *35:12 *64:51 0.000242872
10 *35:12 *129:34 0.000241576
*RES
1 *401:Y *35:12 8.87 
2 *35:12 *403:B_N 3.355 
3 *35:12 *402:A 5.86 
*END

*D_NET *36 0.00122931
*CONN
*I *419:A1 I *D sky130_fd_sc_hd__a311o_1
*I *418:A1 I *D sky130_fd_sc_hd__a21oi_1
*I *404:A I *D sky130_fd_sc_hd__nand2_1
*I *402:X O *D sky130_fd_sc_hd__or2b_1
*CAP
1 *419:A1 6.82734e-05
2 *418:A1 0.000110917
3 *404:A 2.93597e-05
4 *402:X 8.78376e-05
5 *36:21 0.000311361
6 *36:6 0.000249368
7 *404:A *73:30 3.09774e-05
8 *418:A1 *419:A3 8.48377e-05
9 *418:A1 *50:18 4.2801e-05
10 *419:A1 *419:A3 8.08554e-05
11 *419:A1 *133:24 4.00541e-06
12 *36:6 *73:30 9.82472e-05
13 *36:21 *73:30 3.04704e-05
*RES
1 *402:X *36:6 2.74 
2 *36:6 *404:A 2.215 
3 *36:6 *36:21 5.665 
4 *36:21 *418:A1 3.085 
5 *36:21 *419:A1 2.755 
*END

*D_NET *37 0.000573252
*CONN
*I *404:B I *D sky130_fd_sc_hd__nand2_1
*I *403:X O *D sky130_fd_sc_hd__or2b_1
*CAP
1 *404:B 0.000133136
2 *403:X 0.000133136
3 *404:B *402:B_N 5.077e-05
4 *404:B *73:30 0.000132249
5 *402:A *404:B 0.000123961
*RES
1 *403:X *404:B 6.425 
*END

*D_NET *38 0.00407894
*CONN
*I *405:B1 I *D sky130_fd_sc_hd__a211o_1
*I *407:A I *D sky130_fd_sc_hd__nand2_1
*I *404:Y O *D sky130_fd_sc_hd__nand2_1
*CAP
1 *405:B1 0.000277358
2 *407:A 0
3 *404:Y 0.00140705
4 *38:22 0.00168441
5 *405:B1 *393:A 4.66108e-05
6 *405:B1 *398:A1 8.30853e-06
7 *405:B1 *399:A 4.86642e-05
8 *405:B1 *405:C1 0.000161429
9 *405:B1 *39:6 2.81489e-05
10 *405:B1 *104:33 2.79434e-05
11 *405:B1 *112:25 2.01779e-05
12 *38:22 *395:B1 0.000123629
13 *38:22 *420:A2 0
14 *38:22 *39:6 5.83121e-06
15 *38:22 *39:21 0.000198421
16 *38:22 *50:18 3.18097e-05
17 *38:22 *73:43 9.13949e-06
18 *398:B1 *405:B1 0
*RES
1 *404:Y *38:22 14.0895 
2 *38:22 *407:A 1.6 
3 *38:22 *405:B1 10.52 
*END

*D_NET *39 0.00416283
*CONN
*I *419:A2 I *D sky130_fd_sc_hd__a311o_1
*I *418:A2 I *D sky130_fd_sc_hd__a21oi_1
*I *412:A2 I *D sky130_fd_sc_hd__a31o_1
*I *405:X O *D sky130_fd_sc_hd__a211o_1
*CAP
1 *419:A2 0.000341417
2 *418:A2 0
3 *412:A2 0.000144656
4 *405:X 9.91992e-05
5 *39:21 0.00141459
6 *39:6 0.00131703
7 *412:A2 *382:A2 0
8 *412:A2 *397:A3 0
9 *412:A2 *407:B 3.05373e-05
10 *412:A2 *412:A1 9.12494e-06
11 *412:A2 *412:A3 0.000113891
12 *412:A2 *126:12 7.28465e-06
13 *419:A2 *419:A3 1.97817e-05
14 *419:A2 *419:B1 7.66539e-06
15 *419:A2 *419:C1 7.29234e-05
16 *419:A2 *50:18 3.77191e-05
17 *419:A2 *73:12 3.49173e-05
18 *419:A2 *133:24 2.49909e-05
19 *419:A2 *133:45 2.85364e-05
20 *39:6 *405:C1 3.64998e-06
21 *39:21 *408:A1 2.49909e-05
22 *39:21 *408:A2 2.75229e-05
23 *39:21 *409:B2 7.55945e-06
24 *39:21 *50:18 1.07378e-05
25 *39:21 *73:43 0.000151697
26 *405:B1 *39:6 2.81489e-05
27 *38:22 *39:6 5.83121e-06
28 *38:22 *39:21 0.000198421
*RES
1 *405:X *39:6 2.74 
2 *39:6 *412:A2 8.255 
3 *39:6 *39:21 12.795 
4 *39:21 *418:A2 1.6 
5 *39:21 *419:A2 10.8875 
*END

*D_NET *40 0.000815377
*CONN
*I *407:B I *D sky130_fd_sc_hd__nand2_1
*I *406:X O *D sky130_fd_sc_hd__a21o_1
*CAP
1 *407:B 0.0002181
2 *406:X 0.0002181
3 *407:B *405:C1 0.000116158
4 *398:B1 *407:B 0.00023248
5 *412:A2 *407:B 3.05373e-05
*RES
1 *406:X *407:B 10.755 
*END

*D_NET *41 0.000239004
*CONN
*I *412:A3 I *D sky130_fd_sc_hd__a31o_1
*I *407:Y O *D sky130_fd_sc_hd__nand2_1
*CAP
1 *412:A3 6.25564e-05
2 *407:Y 6.25564e-05
3 *412:A2 *412:A3 0.000113891
*RES
1 *407:Y *412:A3 8.58 
*END

*D_NET *42 0.000618977
*CONN
*I *409:B2 I *D sky130_fd_sc_hd__o22a_1
*I *408:Y O *D sky130_fd_sc_hd__a21oi_1
*CAP
1 *409:B2 0.000148018
2 *408:Y 0.000148018
3 *409:B2 *409:A2 4.66108e-05
4 *409:B2 *411:C1 4.27854e-05
5 *409:B2 *447:A 0.000109489
6 *409:B2 *73:43 7.00889e-06
7 *409:B2 *143:10 0.000109489
8 *39:21 *409:B2 7.55945e-06
*RES
1 *408:Y *409:B2 10.185 
*END

*D_NET *43 0.000229035
*CONN
*I *411:B1 I *D sky130_fd_sc_hd__a311o_1
*I *409:X O *D sky130_fd_sc_hd__o22a_1
*CAP
1 *411:B1 3.52536e-05
2 *409:X 3.52536e-05
3 *411:B1 *409:A2 8.41384e-05
4 *411:B1 *411:A1 1.54665e-05
5 *411:B1 *411:A2 2.28811e-05
6 *411:B1 *411:C1 3.6042e-05
*RES
1 *409:X *411:B1 4.355 
*END

*D_NET *44 0.00101141
*CONN
*I *411:C1 I *D sky130_fd_sc_hd__a311o_1
*I *410:Y O *D sky130_fd_sc_hd__nor2_1
*CAP
1 *411:C1 0.000182831
2 *410:Y 0.000182831
3 *411:C1 *409:A1 6.25832e-05
4 *411:C1 *409:A2 5.50314e-05
5 *411:C1 *410:A 0
6 *411:C1 *411:A1 8.70796e-05
7 *411:C1 *56:26 5.86493e-05
8 *411:C1 *60:14 1.56428e-05
9 *411:C1 *147:29 0.000131203
10 *411:C1 *147:31 0.000156725
11 *409:B2 *411:C1 4.27854e-05
12 *411:B1 *411:C1 3.6042e-05
*RES
1 *410:Y *411:C1 8.9 
*END

*D_NET *45 0.000830677
*CONN
*I *412:B1 I *D sky130_fd_sc_hd__a31o_1
*I *411:X O *D sky130_fd_sc_hd__a311o_1
*CAP
1 *412:B1 0.000193577
2 *411:X 0.000193577
3 *412:B1 *378:A2 4.89295e-05
4 *412:B1 *378:B1 4.77719e-05
5 *412:B1 *379:B2 0.000119242
6 *412:B1 *56:26 1.75875e-05
7 *412:B1 *56:37 0.000135964
8 *412:B1 *126:12 4.77769e-05
9 *412:B1 *145:34 2.62526e-05
*RES
1 *411:X *412:B1 7.46 
*END

*D_NET *46 0.000319919
*CONN
*I *417:A I *D sky130_fd_sc_hd__xnor2_1
*I *413:X O *D sky130_fd_sc_hd__o31a_1
*CAP
1 *417:A 0.000109195
2 *413:X 0.000109195
3 *417:A *56:20 1.14192e-05
4 *417:A *128:14 9.01108e-05
*RES
1 *413:X *417:A 5.375 
*END

*D_NET *47 0.00141865
*CONN
*I *420:A2 I *D sky130_fd_sc_hd__o21ba_1
*I *416:A I *D sky130_fd_sc_hd__or2_1
*I *421:B I *D sky130_fd_sc_hd__nand2_1
*I *414:X O *D sky130_fd_sc_hd__and2_1
*CAP
1 *420:A2 0.000194198
2 *416:A 0
3 *421:B 5.52845e-05
4 *414:X 0.000125727
5 *47:12 5.52845e-05
6 *47:10 0.000319925
7 *420:A2 *422:B1 8.75681e-05
8 *420:A2 *73:12 5.53249e-06
9 *420:A2 *133:24 0.000178891
10 *421:B *323:A 3.5678e-06
11 *421:B *416:B 4.71087e-05
12 *421:B *417:B 4.77807e-05
13 *421:B *48:6 2.69153e-05
14 *421:B *56:10 4.12711e-05
15 *47:10 *414:B 4.99619e-05
16 *47:10 *415:A 0
17 *47:10 *417:B 1.7635e-05
18 *47:10 *422:B1 2.71434e-05
19 *47:10 *133:14 0.000111628
20 *47:10 *133:24 2.3228e-05
21 *38:22 *420:A2 0
*RES
1 *414:X *47:10 5.94 
2 *47:10 *47:12 2 
3 *47:12 *421:B 3.1 
4 *47:12 *416:A 1.6 
5 *47:10 *420:A2 7.53 
*END

*D_NET *48 0.00228453
*CONN
*I *416:B I *D sky130_fd_sc_hd__or2_1
*I *422:B1 I *D sky130_fd_sc_hd__o221a_1
*I *415:Y O *D sky130_fd_sc_hd__nor2_1
*CAP
1 *416:B 0.000245122
2 *422:B1 0.000229484
3 *415:Y 5.54478e-05
4 *48:6 0.000530054
5 *416:B *323:A 0.000192127
6 *416:B *56:10 0.000174473
7 *416:B *128:14 0.000145348
8 *422:B1 *394:B 6.09012e-05
9 *422:B1 *415:A 0
10 *422:B1 *417:B 1.7635e-05
11 *422:B1 *422:B2 1.22325e-05
12 *422:B1 *422:C1 0.000127904
13 *48:6 *415:A 7.08076e-06
14 *48:6 *56:10 2.36692e-05
15 *48:6 *56:20 4.07244e-05
16 *48:6 *128:14 0.000233597
17 *420:A2 *422:B1 8.75681e-05
18 *421:B *416:B 4.71087e-05
19 *421:B *48:6 2.69153e-05
20 *47:10 *422:B1 2.71434e-05
*RES
1 *415:Y *48:6 3.775 
2 *48:6 *422:B1 10.37 
3 *48:6 *416:B 7.51 
*END

*D_NET *49 0.00131245
*CONN
*I *417:B I *D sky130_fd_sc_hd__xnor2_1
*I *416:X O *D sky130_fd_sc_hd__or2_1
*CAP
1 *417:B 0.000492265
2 *416:X 0.000492265
3 *417:B *415:B 8.7152e-06
4 *417:B *56:10 4.66108e-05
5 *417:B *56:20 9.47728e-05
6 *417:B *128:14 9.47728e-05
7 *421:B *417:B 4.77807e-05
8 *422:B1 *417:B 1.7635e-05
9 *47:10 *417:B 1.7635e-05
*RES
1 *416:X *417:B 11.4641 
*END

*D_NET *50 0.00185832
*CONN
*I *419:A3 I *D sky130_fd_sc_hd__a311o_1
*I *418:B1 I *D sky130_fd_sc_hd__a21oi_1
*I *417:Y O *D sky130_fd_sc_hd__xnor2_1
*CAP
1 *419:A3 6.96995e-05
2 *418:B1 0
3 *417:Y 0.000439762
4 *50:18 0.000509462
5 *419:A3 *419:C1 0.000104174
6 *419:A3 *133:24 9.10701e-05
7 *50:18 *419:C1 8.95908e-06
8 *50:18 *56:20 0.000326647
9 *50:18 *73:12 0
10 *418:A1 *419:A3 8.48377e-05
11 *418:A1 *50:18 4.2801e-05
12 *419:A1 *419:A3 8.08554e-05
13 *419:A2 *419:A3 1.97817e-05
14 *419:A2 *50:18 3.77191e-05
15 *38:22 *50:18 3.18097e-05
16 *39:21 *50:18 1.07378e-05
*RES
1 *417:Y *50:18 13.46 
2 *50:18 *418:B1 1.6 
3 *50:18 *419:A3 4.4275 
*END

*D_NET *51 0.00193247
*CONN
*I *423:A1 I *D sky130_fd_sc_hd__o21ai_1
*I *418:Y O *D sky130_fd_sc_hd__a21oi_1
*CAP
1 *423:A1 0.000710828
2 *418:Y 0.000710828
3 *423:A1 *419:B1 1.00941e-05
4 *423:A1 *420:B1_N 1.88602e-05
5 *423:A1 *423:A2 0.000238034
6 *423:A1 *56:20 0
7 *423:A1 *133:24 1.08758e-05
8 *435:A *423:A1 0.000232944
*RES
1 *418:Y *423:A1 13.9489 
*END

*D_NET *52 0.000911305
*CONN
*I *423:A2 I *D sky130_fd_sc_hd__o21ai_1
*I *419:X O *D sky130_fd_sc_hd__a311o_1
*CAP
1 *423:A2 0.000245146
2 *419:X 0.000245146
3 *423:A2 *450:A 4.94457e-05
4 *423:A2 *133:24 4.70919e-05
5 *423:A2 *134:18 8.64421e-05
6 *423:A1 *423:A2 0.000238034
*RES
1 *419:X *423:A2 8.135 
*END

*D_NET *53 0.000476574
*CONN
*I *422:B2 I *D sky130_fd_sc_hd__o221a_1
*I *420:X O *D sky130_fd_sc_hd__o21ba_1
*CAP
1 *422:B2 0.000166208
2 *420:X 0.000166208
3 *422:B2 *394:B 2.01934e-05
4 *422:B2 *60:50 2.05459e-05
5 *422:B2 *123:14 1.95626e-05
6 *422:B2 *133:24 7.1624e-05
7 *422:B1 *422:B2 1.22325e-05
*RES
1 *420:X *422:B2 9.93 
*END

*D_NET *54 0.000554882
*CONN
*I *422:C1 I *D sky130_fd_sc_hd__o221a_1
*I *421:Y O *D sky130_fd_sc_hd__nand2_1
*CAP
1 *422:C1 0.000168336
2 *421:Y 0.000168336
3 *422:C1 *394:B 9.03066e-05
4 *422:B1 *422:C1 0.000127904
*RES
1 *421:Y *422:C1 10.68 
*END

*D_NET *55 0.00094177
*CONN
*I *423:B1 I *D sky130_fd_sc_hd__o21ai_1
*I *422:X O *D sky130_fd_sc_hd__o221a_1
*CAP
1 *423:B1 0.000280304
2 *422:X 0.000280304
3 *423:B1 *60:50 0.000381162
4 *423:B1 *132:27 0
5 *435:A *423:B1 0
*RES
1 *422:X *423:B1 12.36 
*END

*D_NET *56 0.0151892
*CONN
*I *421:A I *D sky130_fd_sc_hd__nand2_1
*I *345:A3 I *D sky130_fd_sc_hd__a31o_1
*I *329:A3 I *D sky130_fd_sc_hd__a311o_1
*I *324:B I *D sky130_fd_sc_hd__and2_2
*I *357:A3 I *D sky130_fd_sc_hd__a311o_1
*I *367:A3 I *D sky130_fd_sc_hd__a31o_1
*I *381:A3 I *D sky130_fd_sc_hd__a311o_1
*I *397:A3 I *D sky130_fd_sc_hd__a311o_1
*I *411:A3 I *D sky130_fd_sc_hd__a311o_1
*I *323:Y O *D sky130_fd_sc_hd__nor2b_4
*CAP
1 *421:A 1.94032e-05
2 *345:A3 0.000403597
3 *329:A3 7.64522e-05
4 *324:B 1.02931e-05
5 *357:A3 0.000193391
6 *367:A3 0.000260157
7 *381:A3 0
8 *397:A3 0.0002452
9 *411:A3 0
10 *323:Y 0.000314683
11 *56:110 0.00112143
12 *56:83 0.000806522
13 *56:57 0.00091389
14 *56:48 0.000497785
15 *56:37 0.000469562
16 *56:26 0.000659246
17 *56:20 0.00130163
18 *56:10 0.00100854
19 *324:B *57:20 4.77719e-05
20 *324:B *131:27 4.77719e-05
21 *329:A3 *328:A 4.09464e-05
22 *329:A3 *329:B1 6.57957e-05
23 *329:A3 *329:C1 0.000190227
24 *329:A3 *123:47 1.37853e-05
25 *345:A3 *329:A2 0.000110785
26 *345:A3 *329:B1 5.68523e-06
27 *345:A3 *345:A2 4.77757e-05
28 *345:A3 *346:A2 0
29 *345:A3 *134:42 0
30 *345:A3 *134:53 2.68526e-05
31 *345:A3 *147:18 0
32 *345:A3 *149:58 4.22675e-05
33 *357:A3 *357:A2 3.12916e-05
34 *357:A3 *369:B1 7.27587e-05
35 *357:A3 *369:B2 2.93136e-05
36 *357:A3 *370:A1 4.06267e-05
37 *357:A3 *446:A 0.00018104
38 *357:A3 *83:35 0.000310378
39 *357:A3 *126:74 0
40 *357:A3 *144:47 1.05174e-05
41 *367:A3 *364:A2 5.29546e-05
42 *367:A3 *367:A1 1.03423e-05
43 *367:A3 *367:A2 0.000149847
44 *367:A3 *370:C1 5.35181e-06
45 *367:A3 *144:47 8.49205e-05
46 *397:A3 *114:12 0.000571563
47 *397:A3 *126:12 7.22565e-05
48 *56:20 *415:A 1.32064e-05
49 *56:20 *419:B1 0
50 *56:20 *128:14 1.53861e-05
51 *56:20 *149:12 0
52 *56:26 *409:A2 0.00025373
53 *56:26 *411:A2 0.000176345
54 *56:26 *60:14 4.75959e-05
55 *56:37 *378:A2 4.77719e-05
56 *56:37 *378:B1 4.77719e-05
57 *56:37 *411:A1 5.12969e-06
58 *56:37 *411:A2 9.13949e-06
59 *56:37 *145:34 8.35106e-05
60 *56:37 *145:47 3.6355e-05
61 *56:37 *145:58 0.000111925
62 *56:48 *114:12 0.00013488
63 *56:48 *126:12 0.000127052
64 *56:57 *370:A1 9.08932e-05
65 *56:57 *90:18 9.23578e-05
66 *56:57 *114:12 0.000397517
67 *56:57 *126:12 0.000298335
68 *56:57 *126:23 0.000119328
69 *56:57 *126:36 0.000135382
70 *56:57 *126:74 0
71 *56:57 *144:47 6.28687e-05
72 *56:83 *380:B 4.90776e-05
73 *56:83 *419:B1 0
74 *56:83 *57:20 4.1652e-06
75 *56:83 *60:14 5.1875e-05
76 *56:110 *332:A 0.000119677
77 *56:110 *380:B 1.48927e-05
78 *56:110 *57:8 4.77719e-05
79 *56:110 *57:20 3.05152e-05
80 *56:110 *57:67 0.000254927
81 *56:110 *57:92 0.000117397
82 *56:110 *57:122 1.01661e-05
83 *56:110 *64:6 0.000122801
84 *56:110 *123:27 9.01502e-05
85 *56:110 *123:38 1.25422e-05
86 *56:110 *131:27 0.000196065
87 *56:110 *149:58 0.000134756
88 *398:B1 *397:A3 8.95766e-05
89 *411:C1 *56:26 5.86493e-05
90 *412:A2 *397:A3 0
91 *412:B1 *56:26 1.75875e-05
92 *412:B1 *56:37 0.000135964
93 *416:B *56:10 0.000174473
94 *417:A *56:20 1.14192e-05
95 *417:B *56:10 4.66108e-05
96 *417:B *56:20 9.47728e-05
97 *421:B *56:10 4.12711e-05
98 *423:A1 *56:20 0
99 *48:6 *56:10 2.36692e-05
100 *48:6 *56:20 4.07244e-05
101 *50:18 *56:20 0.000326647
*RES
1 *323:Y *56:10 5.965 
2 *56:10 *56:20 13.355 
3 *56:20 *56:26 8.495 
4 *56:26 *411:A3 1.6 
5 *56:26 *56:37 6.26 
6 *56:37 *397:A3 10.335 
7 *56:37 *56:48 1.635 
8 *56:48 *381:A3 3.6 
9 *56:48 *56:57 11.835 
10 *56:57 *367:A3 7.08 
11 *56:57 *357:A3 9.48 
12 *56:20 *56:83 2.655 
13 *56:83 *324:B 4.05 
14 *56:83 *56:110 21.29 
15 *56:110 *329:A3 6.255 
16 *56:110 *345:A3 10.53 
17 *56:10 *421:A 1.96 
*END

*D_NET *57 0.0159071
*CONN
*I *355:B1 I *D sky130_fd_sc_hd__o22a_1
*I *369:B1 I *D sky130_fd_sc_hd__o22a_1
*I *343:B1 I *D sky130_fd_sc_hd__o22a_1
*I *326:B1 I *D sky130_fd_sc_hd__o22a_1
*I *420:B1_N I *D sky130_fd_sc_hd__o21ba_1
*I *409:B1 I *D sky130_fd_sc_hd__o22a_1
*I *396:B1 I *D sky130_fd_sc_hd__o22a_1
*I *379:B1 I *D sky130_fd_sc_hd__o22a_1
*I *324:X O *D sky130_fd_sc_hd__and2_2
*CAP
1 *355:B1 1.23299e-05
2 *369:B1 0.000391391
3 *343:B1 0.00113276
4 *326:B1 0
5 *420:B1_N 0.000347375
6 *409:B1 5.35732e-05
7 *396:B1 0.000734376
8 *379:B1 1.99858e-05
9 *324:X 3.43016e-05
10 *57:122 0.00146736
11 *57:92 0.00130809
12 *57:67 0.000731408
13 *57:63 0.00134033
14 *57:22 0.000851682
15 *57:20 0.000428678
16 *57:8 0.000380077
17 *343:B1 *329:B1 4.4487e-05
18 *343:B1 *343:A2 2.18786e-05
19 *343:B1 *343:B2 3.7837e-05
20 *343:B1 *60:80 0.000201162
21 *343:B1 *60:91 0.000499311
22 *343:B1 *125:12 2.33708e-05
23 *343:B1 *147:18 0
24 *355:B1 *355:B2 3.0968e-05
25 *369:B1 *357:A1 4.77719e-05
26 *369:B1 *357:C1 8.64488e-05
27 *369:B1 *368:B1 2.53331e-06
28 *369:B1 *369:A2 7.53083e-05
29 *369:B1 *369:B2 0.00013691
30 *369:B1 *370:A1 4.22058e-05
31 *369:B1 *143:62 8.53519e-05
32 *369:B1 *144:47 5.48892e-05
33 *379:B1 *381:B1 8.64421e-05
34 *379:B1 *447:A 7.27717e-05
35 *396:B1 *378:B1 0.0001967
36 *396:B1 *379:B2 0.00015356
37 *396:B1 *381:B1 0.000195108
38 *396:B1 *395:A1 8.35068e-05
39 *396:B1 *395:B1 0.000500236
40 *396:B1 *129:14 1.74517e-05
41 *396:B1 *129:34 0
42 *396:B1 *129:49 0
43 *396:B1 *145:58 7.01359e-05
44 *409:B1 *447:A 0.000154982
45 *409:B1 *64:51 5.69216e-05
46 *409:B1 *147:44 5.00903e-05
47 *420:B1_N *325:B2 0.000180277
48 *420:B1_N *341:A 1.95588e-05
49 *420:B1_N *73:12 0
50 *420:B1_N *73:30 0
51 *420:B1_N *123:14 0.000422132
52 *420:B1_N *123:27 0.000190882
53 *420:B1_N *133:24 9.54399e-05
54 *57:20 *332:A 7.9642e-06
55 *57:20 *131:18 0.000191343
56 *57:20 *131:27 7.94209e-05
57 *57:22 *447:A 4.42148e-05
58 *57:22 *131:18 0.00015856
59 *57:63 *332:A 0.000108794
60 *57:63 *380:B 0
61 *57:67 *332:A 0.000121031
62 *57:67 *62:22 0.000343962
63 *57:67 *64:8 1.19928e-05
64 *57:92 *123:27 1.73877e-05
65 *57:92 *134:18 6.49029e-05
66 *57:122 *332:A 3.09233e-05
67 *57:122 *336:A1 0
68 *57:122 *347:A2 0
69 *57:122 *351:B 0
70 *57:122 *355:B2 0.000188647
71 *57:122 *357:C1 3.12916e-05
72 *57:122 *380:B 0
73 *57:122 *62:90 0
74 *57:122 *64:86 6.28843e-05
75 *57:122 *68:12 7.1624e-05
76 *57:122 *78:20 0
77 *57:122 *125:12 0.00027287